** sch_path: /home/designer/designs/libs/IHP__MPC0349/MPC0349-main/schematic/xschem/user_project_wrapper.sch
.subckt user_project_wrapper VDD3 VSS3 analog_io[0] analog_io[18] analog_io[1] analog_io[19] ui_PAD[2] analog_io[20] analog_io[21]
+ uo_PAD[3] analog_io[22] analog_io[4] analog_io[5] analog_io[23] analog_io[6] analog_io[24] analog_io[25] analog_io[7] analog_io[26]
+ uo_PAD[8] analog_io[27] ui_PAD[9] analog_io[10] analog_io[28] analog_io[11] analog_io[29] analog_io[12] analog_io[30] ui_PAD[31]
+ analog_io[13] analog_io[32] analog_io[14] analog_io[15] analog_io[33] analog_io[16] analog_io[34] analog_io[17] analog_io[35] IOVDD3 IOVSS3
+ VDD1 VSS1 IOVDD1 IOVSS1 IOVDD4 IOVSS4 VDD4 VSS4 IOVDD2 IOVSS2 VDD2 VSS2 analog_io_padres[28] analog_io_padres[29] analog_io_padres[33]
+ analog_io_padres[34] ui_p2c[31] uo_c2p[8] analog_io_padres[6] analog_io_padres[0] analog_io_padres[1] ui_p2c[2] uo_c2p[3] analog_io_padres[5]
+ ui_p2c[9] analog_io_padres[19] analog_io_padres[22] analog_io_padres[25] analog_io_padres[10] analog_io_padres[11] analog_io_padres[12]
+ analog_io_padres[16] analog_io_padres[24] analog_io_padres[23] analog_io_padres[21] analog_io_padres[20] SUB
*.PININFO VSS1:B VDD1:B IOVDD1:B IOVSS1:B analog_io[32]:B analog_io[10]:B analog_io[4]:B analog_io[0]:B ui_PAD[31]:B ui_PAD[9]:B
*+ uo_PAD[8]:B uo_PAD[3]:B ui_PAD[2]:B VSS2:B VDD2:B IOVDD2:B IOVSS2:B VSS3:B VDD3:B IOVDD3:B IOVSS3:B VSS4:B VDD4:B IOVDD4:B IOVSS4:B
*+ analog_io_padres[28]:B analog_io_padres[33]:B ui_p2c[31]:B ui_p2c[9]:B ui_p2c[2]:B analog_io_padres[5]:B analog_io_padres[0]:B uo_c2p[8]:B uo_c2p[3]:B
*+ analog_io_padres[19]:B analog_io_padres[20]:B analog_io_padres[25]:B analog_io_padres[1]:B analog_io_padres[6]:B analog_io_padres[29]:B
*+ analog_io_padres[34]:B analog_io[1]:B analog_io[5]:B analog_io[6]:B analog_io[7]:B analog_io[11]:B analog_io[12]:B analog_io[13]:B analog_io[14]:B
*+ analog_io[15]:B analog_io[16]:B analog_io[17]:B analog_io[18]:B analog_io[19]:B analog_io[30]:B analog_io[20]:B analog_io[21]:B analog_io[22]:B
*+ analog_io[23]:B analog_io[24]:B analog_io[25]:B analog_io[26]:B analog_io[27]:B analog_io[28]:B analog_io[29]:B analog_io[33]:B analog_io[34]:B
*+ analog_io[35]:B analog_io_padres[10]:B analog_io_padres[11]:B analog_io_padres[12]:B analog_io_padres[16]:B analog_io_padres[21]:B
*+ analog_io_padres[22]:B analog_io_padres[23]:B analog_io_padres[24]:B SUB:B
x5 IOVDD1 VDD1 VSS1 SUB IOVSS1 IOVSS1 IOVSS1 sg13g2_Corner_noptap
x6 VSS1 VDD1 SUB IOVSS1 IOVDD1 IOVSS1 ui_PAD[9] ui_p2c[9] sg13g2_IOPadIn
x10 VSS2 VDD2 SUB IOVSS2 IOVDD2 IOVSS2 sg13g2_IOPadVss
x11[1] IOVDD1 IOVSS1 VDD1 IOVSS1 IOVSS1 VSS1 SUB sg13g2_Filler4000
x11[0] IOVDD1 IOVSS1 VDD1 IOVSS1 IOVSS1 VSS1 SUB sg13g2_Filler4000
x12[1] IOVDD1 IOVSS1 VDD1 IOVSS1 IOVSS1 VSS1 SUB sg13g2_Filler1000
x12[0] IOVDD1 IOVSS1 VDD1 IOVSS1 IOVSS1 VSS1 SUB sg13g2_Filler1000
x13[1] IOVDD1 IOVSS1 VDD1 IOVSS1 IOVSS1 VSS1 SUB sg13g2_Filler400
x13[0] IOVDD1 IOVSS1 VDD1 IOVSS1 IOVSS1 VSS1 SUB sg13g2_Filler400
x14[1] IOVDD1 IOVSS1 VDD1 IOVSS1 IOVSS1 VSS1 SUB sg13g2_Filler200
x14[0] IOVDD1 IOVSS1 VDD1 IOVSS1 IOVSS1 VSS1 SUB sg13g2_Filler200
x15 VSS2 VDD2 SUB IOVSS2 IOVDD2 IOVSS2 sg13g2_IOPadVdd
x16[11] IOVDD1 IOVSS1 VDD1 IOVSS1 IOVSS1 VSS1 SUB sg13g2_Filler4000
x16[10] IOVDD1 IOVSS1 VDD1 IOVSS1 IOVSS1 VSS1 SUB sg13g2_Filler4000
x16[9] IOVDD1 IOVSS1 VDD1 IOVSS1 IOVSS1 VSS1 SUB sg13g2_Filler4000
x16[8] IOVDD1 IOVSS1 VDD1 IOVSS1 IOVSS1 VSS1 SUB sg13g2_Filler4000
x16[7] IOVDD1 IOVSS1 VDD1 IOVSS1 IOVSS1 VSS1 SUB sg13g2_Filler4000
x16[6] IOVDD1 IOVSS1 VDD1 IOVSS1 IOVSS1 VSS1 SUB sg13g2_Filler4000
x16[5] IOVDD1 IOVSS1 VDD1 IOVSS1 IOVSS1 VSS1 SUB sg13g2_Filler4000
x16[4] IOVDD1 IOVSS1 VDD1 IOVSS1 IOVSS1 VSS1 SUB sg13g2_Filler4000
x16[3] IOVDD1 IOVSS1 VDD1 IOVSS1 IOVSS1 VSS1 SUB sg13g2_Filler4000
x16[2] IOVDD1 IOVSS1 VDD1 IOVSS1 IOVSS1 VSS1 SUB sg13g2_Filler4000
x16[1] IOVDD1 IOVSS1 VDD1 IOVSS1 IOVSS1 VSS1 SUB sg13g2_Filler4000
x16[0] IOVDD1 IOVSS1 VDD1 IOVSS1 IOVSS1 VSS1 SUB sg13g2_Filler4000
x17[11] IOVDD1 IOVSS1 VDD1 IOVSS1 IOVSS1 VSS1 SUB sg13g2_Filler400
x17[10] IOVDD1 IOVSS1 VDD1 IOVSS1 IOVSS1 VSS1 SUB sg13g2_Filler400
x17[9] IOVDD1 IOVSS1 VDD1 IOVSS1 IOVSS1 VSS1 SUB sg13g2_Filler400
x17[8] IOVDD1 IOVSS1 VDD1 IOVSS1 IOVSS1 VSS1 SUB sg13g2_Filler400
x17[7] IOVDD1 IOVSS1 VDD1 IOVSS1 IOVSS1 VSS1 SUB sg13g2_Filler400
x17[6] IOVDD1 IOVSS1 VDD1 IOVSS1 IOVSS1 VSS1 SUB sg13g2_Filler400
x17[5] IOVDD1 IOVSS1 VDD1 IOVSS1 IOVSS1 VSS1 SUB sg13g2_Filler400
x17[4] IOVDD1 IOVSS1 VDD1 IOVSS1 IOVSS1 VSS1 SUB sg13g2_Filler400
x17[3] IOVDD1 IOVSS1 VDD1 IOVSS1 IOVSS1 VSS1 SUB sg13g2_Filler400
x17[2] IOVDD1 IOVSS1 VDD1 IOVSS1 IOVSS1 VSS1 SUB sg13g2_Filler400
x17[1] IOVDD1 IOVSS1 VDD1 IOVSS1 IOVSS1 VSS1 SUB sg13g2_Filler400
x17[0] IOVDD1 IOVSS1 VDD1 IOVSS1 IOVSS1 VSS1 SUB sg13g2_Filler400
x1 IOVDD2 VSS2 analog_io[10] VDD2 SUB analog_io_padres[10] IOVSS2 IOVDD2 sg13g2_IOPadAnalog
x2 IOVDD2 VSS2 analog_io[11] VDD2 SUB analog_io_padres[11] IOVSS2 IOVDD2 sg13g2_IOPadAnalog
x3 IOVDD2 VSS2 analog_io[12] VDD2 SUB analog_io_padres[12] IOVSS2 IOVDD2 sg13g2_IOPadAnalog
x4 IOVDD2 VSS2 analog_io[13] VDD2 SUB net1 IOVSS2 IOVDD2 sg13g2_IOPadAnalog
x11 IOVDD2 VSS2 analog_io[14] VDD2 SUB net2 IOVSS2 IOVDD2 sg13g2_IOPadAnalog
x12 IOVDD2 VSS2 analog_io[15] VDD2 SUB net3 IOVSS2 IOVDD2 sg13g2_IOPadAnalog
x13 IOVDD2 VSS2 analog_io[16] VDD2 SUB analog_io_padres[16] IOVSS2 IOVDD2 sg13g2_IOPadAnalog
x14 IOVDD2 VSS2 analog_io[17] VDD2 SUB net4 IOVSS2 IOVDD2 sg13g2_IOPadAnalog
x16 VSS2 VDD2 SUB IOVSS2 IOVDD2 IOVSS2 sg13g2_IOPadIOVdd
x17 VSS2 VDD2 SUB IOVSS2 IOVDD2 sg13g2_IOPadIOVss
* noconn #net1
* noconn #net2
* noconn #net3
* noconn #net4
x7 IOVDD2 VDD2 VSS2 SUB IOVSS2 IOVSS2 IOVSS2 sg13g2_Corner_noptap
x8 IOVDD3 VSS3 analog_io[18] VDD3 SUB net5 IOVSS3 IOVDD3 sg13g2_IOPadAnalog
x9 VSS3 VDD3 SUB IOVSS3 IOVDD3 IOVSS3 sg13g2_IOPadVss
x18 VSS3 VDD3 SUB IOVSS3 IOVDD3 IOVSS3 sg13g2_IOPadVdd
x19 IOVDD3 VSS3 analog_io[19] VDD3 SUB analog_io_padres[19] IOVSS3 IOVDD3 sg13g2_IOPadAnalog
x20 IOVDD3 VSS3 analog_io[20] VDD3 SUB analog_io_padres[20] IOVSS3 IOVDD3 sg13g2_IOPadAnalog
x21 IOVDD3 VSS3 analog_io[21] VDD3 SUB analog_io_padres[21] IOVSS3 IOVDD3 sg13g2_IOPadAnalog
x22 IOVDD3 VSS3 analog_io[22] VDD3 SUB analog_io_padres[22] IOVSS3 IOVDD3 sg13g2_IOPadAnalog
x23 IOVDD3 VSS3 analog_io[23] VDD3 SUB analog_io_padres[23] IOVSS3 IOVDD3 sg13g2_IOPadAnalog
x24 IOVDD3 VSS3 analog_io[24] VDD3 SUB analog_io_padres[24] IOVSS3 IOVDD3 sg13g2_IOPadAnalog
x25 IOVDD3 VSS3 analog_io[25] VDD3 SUB analog_io_padres[25] IOVSS3 IOVDD3 sg13g2_IOPadAnalog
x26 IOVDD3 VSS3 analog_io[26] VDD3 SUB net6 IOVSS3 IOVDD3 sg13g2_IOPadAnalog
x27 VSS3 VDD3 SUB IOVSS3 IOVDD3 IOVSS3 sg13g2_IOPadIOVdd
x28 VSS3 VDD3 SUB IOVSS3 IOVDD3 sg13g2_IOPadIOVss
* noconn #net5
* noconn #net6
* noconn SUB
x29 IOVDD3 VDD3 VSS3 SUB IOVSS3 IOVSS3 IOVSS3 sg13g2_Corner_noptap
x30 IOVDD4 VSS4 analog_io[35] VDD4 SUB net7 IOVSS4 IOVDD4 sg13g2_IOPadAnalog
x31 VSS4 VDD4 SUB IOVSS4 IOVDD4 IOVSS4 sg13g2_IOPadIOVdd
x32 VSS4 VDD4 SUB IOVSS4 IOVDD4 sg13g2_IOPadIOVss
x33 IOVDD4 VSS4 analog_io[34] VDD4 SUB analog_io_padres[34] IOVSS4 IOVDD4 sg13g2_IOPadAnalog
x34 IOVDD4 VSS4 analog_io[33] VDD4 SUB analog_io_padres[33] IOVSS4 IOVDD4 sg13g2_IOPadAnalog
x35 IOVDD4 VSS4 analog_io[32] VDD4 SUB net8 IOVSS4 IOVDD4 sg13g2_IOPadAnalog
x36 VSS4 VDD4 SUB IOVSS4 IOVDD4 IOVSS4 ui_PAD[31] ui_p2c[31] sg13g2_IOPadIn
x37 IOVDD4 VSS4 analog_io[30] VDD4 SUB net9 IOVSS4 IOVDD4 sg13g2_IOPadAnalog
x38 IOVDD4 VSS4 analog_io[29] VDD4 SUB analog_io_padres[29] IOVSS4 IOVDD4 sg13g2_IOPadAnalog
x39 IOVDD4 VSS4 analog_io[28] VDD4 SUB analog_io_padres[28] IOVSS4 IOVDD4 sg13g2_IOPadAnalog
x40 IOVDD4 VSS4 analog_io[27] VDD4 SUB net10 IOVSS4 IOVDD4 sg13g2_IOPadAnalog
x41 VSS4 VDD4 SUB IOVSS4 IOVDD4 IOVSS4 sg13g2_IOPadVdd
x42 VSS4 VDD4 SUB IOVSS4 IOVDD4 IOVSS4 sg13g2_IOPadVss
* noconn #net7
* noconn #net8
* noconn #net9
* noconn #net10
* noconn SUB
x43 IOVDD4 VDD4 VSS4 SUB IOVSS4 IOVSS4 IOVSS4 sg13g2_Corner_noptap
x44 VSS1 VDD1 SUB IOVSS1 IOVDD1 uo_c2p[8] uo_PAD[8] IOVDD1 sg13g2_IOPadOut4mA
x45 VSS1 VDD1 SUB IOVSS1 IOVDD1 IOVSS1 sg13g2_IOPadIOVdd
x46 VSS1 VDD1 SUB IOVSS1 IOVDD1 sg13g2_IOPadIOVss
x47 IOVDD1 VSS1 analog_io[7] VDD1 SUB net11 IOVSS1 IOVDD1 sg13g2_IOPadAnalog
x48 IOVDD1 VSS1 analog_io[6] VDD1 SUB analog_io_padres[6] IOVSS1 IOVDD1 sg13g2_IOPadAnalog
x49 IOVDD1 VSS1 analog_io[5] VDD1 SUB analog_io_padres[5] IOVSS1 IOVDD1 sg13g2_IOPadAnalog
x50 IOVDD1 VSS1 analog_io[4] VDD1 SUB net12 IOVSS1 IOVDD1 sg13g2_IOPadAnalog
x51 VSS1 VDD1 SUB IOVSS1 IOVDD1 uo_c2p[3] uo_PAD[3] IOVDD1 sg13g2_IOPadOut4mA
x52 VSS1 VDD1 SUB IOVSS1 IOVDD1 IOVSS1 ui_PAD[2] ui_p2c[2] sg13g2_IOPadIn
x53 IOVDD1 VSS1 analog_io[1] VDD1 SUB analog_io_padres[1] IOVSS1 IOVDD1 sg13g2_IOPadAnalog
x54 IOVDD1 VSS1 analog_io[0] VDD1 SUB analog_io_padres[0] IOVSS1 IOVDD1 sg13g2_IOPadAnalog
x55 VSS1 VDD1 SUB IOVSS1 IOVDD1 IOVSS1 sg13g2_IOPadVdd
x56 VSS1 VDD1 SUB IOVSS1 IOVDD1 IOVSS1 sg13g2_IOPadVss
* noconn #net11
* noconn #net12
* noconn SUB
R4 VSS1 SUB ptap1 A=13.1934p P=84.705u
R1 IOVSS1 SUB ptap1 A=10168.74p P=982.42u
x1[0] IOVDD2 IOVSS2 VDD2 IOVSS2 IOVSS2 VSS2 SUB sg13g2_Filler4000
x2[0] IOVDD2 IOVSS2 VDD2 IOVSS2 IOVSS2 VSS2 SUB sg13g2_Filler1000
x3[1] IOVDD2 IOVSS2 VDD2 IOVSS2 IOVSS2 VSS2 SUB sg13g2_Filler400
x3[0] IOVDD2 IOVSS2 VDD2 IOVSS2 IOVSS2 VSS2 SUB sg13g2_Filler400
x4[0] IOVDD2 IOVSS2 VDD2 IOVSS2 IOVSS2 VSS2 SUB sg13g2_Filler200
x5[10] IOVDD2 IOVSS2 VDD2 IOVSS2 IOVSS2 VSS2 SUB sg13g2_Filler4000
x5[9] IOVDD2 IOVSS2 VDD2 IOVSS2 IOVSS2 VSS2 SUB sg13g2_Filler4000
x5[8] IOVDD2 IOVSS2 VDD2 IOVSS2 IOVSS2 VSS2 SUB sg13g2_Filler4000
x5[7] IOVDD2 IOVSS2 VDD2 IOVSS2 IOVSS2 VSS2 SUB sg13g2_Filler4000
x5[6] IOVDD2 IOVSS2 VDD2 IOVSS2 IOVSS2 VSS2 SUB sg13g2_Filler4000
x5[5] IOVDD2 IOVSS2 VDD2 IOVSS2 IOVSS2 VSS2 SUB sg13g2_Filler4000
x5[4] IOVDD2 IOVSS2 VDD2 IOVSS2 IOVSS2 VSS2 SUB sg13g2_Filler4000
x5[3] IOVDD2 IOVSS2 VDD2 IOVSS2 IOVSS2 VSS2 SUB sg13g2_Filler4000
x5[2] IOVDD2 IOVSS2 VDD2 IOVSS2 IOVSS2 VSS2 SUB sg13g2_Filler4000
x5[1] IOVDD2 IOVSS2 VDD2 IOVSS2 IOVSS2 VSS2 SUB sg13g2_Filler4000
x5[0] IOVDD2 IOVSS2 VDD2 IOVSS2 IOVSS2 VSS2 SUB sg13g2_Filler4000
x6[10] IOVDD2 IOVSS2 VDD2 IOVSS2 IOVSS2 VSS2 SUB sg13g2_Filler400
x6[9] IOVDD2 IOVSS2 VDD2 IOVSS2 IOVSS2 VSS2 SUB sg13g2_Filler400
x6[8] IOVDD2 IOVSS2 VDD2 IOVSS2 IOVSS2 VSS2 SUB sg13g2_Filler400
x6[7] IOVDD2 IOVSS2 VDD2 IOVSS2 IOVSS2 VSS2 SUB sg13g2_Filler400
x6[6] IOVDD2 IOVSS2 VDD2 IOVSS2 IOVSS2 VSS2 SUB sg13g2_Filler400
x6[5] IOVDD2 IOVSS2 VDD2 IOVSS2 IOVSS2 VSS2 SUB sg13g2_Filler400
x6[4] IOVDD2 IOVSS2 VDD2 IOVSS2 IOVSS2 VSS2 SUB sg13g2_Filler400
x6[3] IOVDD2 IOVSS2 VDD2 IOVSS2 IOVSS2 VSS2 SUB sg13g2_Filler400
x6[2] IOVDD2 IOVSS2 VDD2 IOVSS2 IOVSS2 VSS2 SUB sg13g2_Filler400
x6[1] IOVDD2 IOVSS2 VDD2 IOVSS2 IOVSS2 VSS2 SUB sg13g2_Filler400
x6[0] IOVDD2 IOVSS2 VDD2 IOVSS2 IOVSS2 VSS2 SUB sg13g2_Filler400
R2 VSS2 SUB ptap1 A=13.1934p P=84.705u
R3 IOVSS2 SUB ptap1 A=10168.74p P=982.42u
x7[0] IOVDD3 IOVSS3 VDD3 IOVSS3 IOVSS3 VSS3 SUB sg13g2_Filler4000
x8[2] IOVDD3 IOVSS3 VDD3 IOVSS3 IOVSS3 VSS3 SUB sg13g2_Filler1000
x8[1] IOVDD3 IOVSS3 VDD3 IOVSS3 IOVSS3 VSS3 SUB sg13g2_Filler1000
x8[0] IOVDD3 IOVSS3 VDD3 IOVSS3 IOVSS3 VSS3 SUB sg13g2_Filler1000
x9[2] IOVDD3 IOVSS3 VDD3 IOVSS3 IOVSS3 VSS3 SUB sg13g2_Filler400
x9[1] IOVDD3 IOVSS3 VDD3 IOVSS3 IOVSS3 VSS3 SUB sg13g2_Filler400
x9[0] IOVDD3 IOVSS3 VDD3 IOVSS3 IOVSS3 VSS3 SUB sg13g2_Filler400
x10[2] IOVDD3 IOVSS3 VDD3 IOVSS3 IOVSS3 VSS3 SUB sg13g2_Filler200
x10[1] IOVDD3 IOVSS3 VDD3 IOVSS3 IOVSS3 VSS3 SUB sg13g2_Filler200
x10[0] IOVDD3 IOVSS3 VDD3 IOVSS3 IOVSS3 VSS3 SUB sg13g2_Filler200
x15[11] IOVDD3 IOVSS3 VDD3 IOVSS3 IOVSS3 VSS3 SUB sg13g2_Filler4000
x15[10] IOVDD3 IOVSS3 VDD3 IOVSS3 IOVSS3 VSS3 SUB sg13g2_Filler4000
x15[9] IOVDD3 IOVSS3 VDD3 IOVSS3 IOVSS3 VSS3 SUB sg13g2_Filler4000
x15[8] IOVDD3 IOVSS3 VDD3 IOVSS3 IOVSS3 VSS3 SUB sg13g2_Filler4000
x15[7] IOVDD3 IOVSS3 VDD3 IOVSS3 IOVSS3 VSS3 SUB sg13g2_Filler4000
x15[6] IOVDD3 IOVSS3 VDD3 IOVSS3 IOVSS3 VSS3 SUB sg13g2_Filler4000
x15[5] IOVDD3 IOVSS3 VDD3 IOVSS3 IOVSS3 VSS3 SUB sg13g2_Filler4000
x15[4] IOVDD3 IOVSS3 VDD3 IOVSS3 IOVSS3 VSS3 SUB sg13g2_Filler4000
x15[3] IOVDD3 IOVSS3 VDD3 IOVSS3 IOVSS3 VSS3 SUB sg13g2_Filler4000
x15[2] IOVDD3 IOVSS3 VDD3 IOVSS3 IOVSS3 VSS3 SUB sg13g2_Filler4000
x15[1] IOVDD3 IOVSS3 VDD3 IOVSS3 IOVSS3 VSS3 SUB sg13g2_Filler4000
x15[0] IOVDD3 IOVSS3 VDD3 IOVSS3 IOVSS3 VSS3 SUB sg13g2_Filler4000
x18[11] IOVDD3 IOVSS3 VDD3 IOVSS3 IOVSS3 VSS3 SUB sg13g2_Filler400
x18[10] IOVDD3 IOVSS3 VDD3 IOVSS3 IOVSS3 VSS3 SUB sg13g2_Filler400
x18[9] IOVDD3 IOVSS3 VDD3 IOVSS3 IOVSS3 VSS3 SUB sg13g2_Filler400
x18[8] IOVDD3 IOVSS3 VDD3 IOVSS3 IOVSS3 VSS3 SUB sg13g2_Filler400
x18[7] IOVDD3 IOVSS3 VDD3 IOVSS3 IOVSS3 VSS3 SUB sg13g2_Filler400
x18[6] IOVDD3 IOVSS3 VDD3 IOVSS3 IOVSS3 VSS3 SUB sg13g2_Filler400
x18[5] IOVDD3 IOVSS3 VDD3 IOVSS3 IOVSS3 VSS3 SUB sg13g2_Filler400
x18[4] IOVDD3 IOVSS3 VDD3 IOVSS3 IOVSS3 VSS3 SUB sg13g2_Filler400
x18[3] IOVDD3 IOVSS3 VDD3 IOVSS3 IOVSS3 VSS3 SUB sg13g2_Filler400
x18[2] IOVDD3 IOVSS3 VDD3 IOVSS3 IOVSS3 VSS3 SUB sg13g2_Filler400
x18[1] IOVDD3 IOVSS3 VDD3 IOVSS3 IOVSS3 VSS3 SUB sg13g2_Filler400
x18[0] IOVDD3 IOVSS3 VDD3 IOVSS3 IOVSS3 VSS3 SUB sg13g2_Filler400
R5 VSS3 SUB ptap1 A=13.1934p P=84.705u
R6 IOVSS3 SUB ptap1 A=10168.74p P=982.42u
x19[0] IOVDD4 IOVSS4 VDD4 IOVSS4 IOVSS4 VSS4 SUB sg13g2_Filler4000
x20[1] IOVDD4 IOVSS4 VDD4 IOVSS4 IOVSS4 VSS4 SUB sg13g2_Filler1000
x20[0] IOVDD4 IOVSS4 VDD4 IOVSS4 IOVSS4 VSS4 SUB sg13g2_Filler1000
x21[1] IOVDD4 IOVSS4 VDD4 IOVSS4 IOVSS4 VSS4 SUB sg13g2_Filler400
x21[0] IOVDD4 IOVSS4 VDD4 IOVSS4 IOVSS4 VSS4 SUB sg13g2_Filler400
x22[1] IOVDD4 IOVSS4 VDD4 IOVSS4 IOVSS4 VSS4 SUB sg13g2_Filler200
x22[0] IOVDD4 IOVSS4 VDD4 IOVSS4 IOVSS4 VSS4 SUB sg13g2_Filler200
x23[11] IOVDD4 IOVSS4 VDD4 IOVSS4 IOVSS4 VSS4 SUB sg13g2_Filler4000
x23[10] IOVDD4 IOVSS4 VDD4 IOVSS4 IOVSS4 VSS4 SUB sg13g2_Filler4000
x23[9] IOVDD4 IOVSS4 VDD4 IOVSS4 IOVSS4 VSS4 SUB sg13g2_Filler4000
x23[8] IOVDD4 IOVSS4 VDD4 IOVSS4 IOVSS4 VSS4 SUB sg13g2_Filler4000
x23[7] IOVDD4 IOVSS4 VDD4 IOVSS4 IOVSS4 VSS4 SUB sg13g2_Filler4000
x23[6] IOVDD4 IOVSS4 VDD4 IOVSS4 IOVSS4 VSS4 SUB sg13g2_Filler4000
x23[5] IOVDD4 IOVSS4 VDD4 IOVSS4 IOVSS4 VSS4 SUB sg13g2_Filler4000
x23[4] IOVDD4 IOVSS4 VDD4 IOVSS4 IOVSS4 VSS4 SUB sg13g2_Filler4000
x23[3] IOVDD4 IOVSS4 VDD4 IOVSS4 IOVSS4 VSS4 SUB sg13g2_Filler4000
x23[2] IOVDD4 IOVSS4 VDD4 IOVSS4 IOVSS4 VSS4 SUB sg13g2_Filler4000
x23[1] IOVDD4 IOVSS4 VDD4 IOVSS4 IOVSS4 VSS4 SUB sg13g2_Filler4000
x23[0] IOVDD4 IOVSS4 VDD4 IOVSS4 IOVSS4 VSS4 SUB sg13g2_Filler4000
x24[11] IOVDD4 IOVSS4 VDD4 IOVSS4 IOVSS4 VSS4 SUB sg13g2_Filler400
x24[10] IOVDD4 IOVSS4 VDD4 IOVSS4 IOVSS4 VSS4 SUB sg13g2_Filler400
x24[9] IOVDD4 IOVSS4 VDD4 IOVSS4 IOVSS4 VSS4 SUB sg13g2_Filler400
x24[8] IOVDD4 IOVSS4 VDD4 IOVSS4 IOVSS4 VSS4 SUB sg13g2_Filler400
x24[7] IOVDD4 IOVSS4 VDD4 IOVSS4 IOVSS4 VSS4 SUB sg13g2_Filler400
x24[6] IOVDD4 IOVSS4 VDD4 IOVSS4 IOVSS4 VSS4 SUB sg13g2_Filler400
x24[5] IOVDD4 IOVSS4 VDD4 IOVSS4 IOVSS4 VSS4 SUB sg13g2_Filler400
x24[4] IOVDD4 IOVSS4 VDD4 IOVSS4 IOVSS4 VSS4 SUB sg13g2_Filler400
x24[3] IOVDD4 IOVSS4 VDD4 IOVSS4 IOVSS4 VSS4 SUB sg13g2_Filler400
x24[2] IOVDD4 IOVSS4 VDD4 IOVSS4 IOVSS4 VSS4 SUB sg13g2_Filler400
x24[1] IOVDD4 IOVSS4 VDD4 IOVSS4 IOVSS4 VSS4 SUB sg13g2_Filler400
x24[0] IOVDD4 IOVSS4 VDD4 IOVSS4 IOVSS4 VSS4 SUB sg13g2_Filler400
R7 VSS4 SUB ptap1 A=13.1934p P=84.705u
R8 IOVSS4 SUB ptap1 A=10168.74p P=982.42u
.ends

* expanding   symbol:  sg13g2_Corner_noptap.sym # of pins=7
** sym_path: /home/designer/designs/openpdk-libraries/ihp-sg13g2/sg13g2_io/xschem/sg13g2_Corner_noptap.sym
** sch_path: /home/designer/designs/openpdk-libraries/ihp-sg13g2/sg13g2_io/xschem/sg13g2_Corner_noptap.sch
.subckt sg13g2_Corner_noptap iovdd vdd vss sub iovss1 iovss3 iovss2
*.PININFO vss:B iovdd:B vdd:B sub:B iovss1:B iovss2:B iovss3:B
* noconn iovdd
* noconn vdd
.ends


* expanding   symbol:  sg13g2_IOPadIn.sym # of pins=8
** sym_path: /home/designer/designs/openpdk-libraries/ihp-sg13g2/sg13g2_io/xschem/sg13g2_IOPadIn.sym
** sch_path: /home/designer/designs/openpdk-libraries/ihp-sg13g2/sg13g2_io/xschem/sg13g2_IOPadIn.sch
.subckt sg13g2_IOPadIn vss vdd ! iovss iovdd iovss1 pad p2c
*.PININFO iovdd:B vss:B vdd:B !:B iovss:B iovss1:B pad:B p2c:B
R2 vss ! ptap1 A=24p P=160.6u
R1 iovss1 ! ptap1 A=5416.1304p P=746.28u
x4 iovdd iovss1 pad p2c vdd vss ! sg13g2_LevelDown_noptap
x2 iovdd ! pad pad ! sg13g2_DCPDiode_noptap
x1 pad iovss pad iovdd ! sg13g2_DCNDiode
.ends


* expanding   symbol:  sg13g2_IOPadVss.sym # of pins=6
** sym_path: /home/designer/designs/openpdk-libraries/ihp-sg13g2/sg13g2_io/xschem/sg13g2_IOPadVss.sym
** sch_path: /home/designer/designs/openpdk-libraries/ihp-sg13g2/sg13g2_io/xschem/sg13g2_IOPadVss.sch
.subckt sg13g2_IOPadVss vss vdd sub iovss iovdd iovss1
*.PININFO iovdd:B vss:B vdd:B sub:B iovss:B iovss1:B
R2 vss sub ptap1 A=24p P=160.6u
x2 iovdd sub vss vss sub sg13g2_DCPDiode_noptap
x4 vss iovss vss iovdd sub sg13g2_DCNDiode
* noconn vdd
R1 iovss1 sub ptap1 A=5407.1p P=703.48u
.ends


* expanding   symbol:  sg13g2_Filler4000.sym # of pins=7
** sym_path: /home/designer/designs/openpdk-libraries/ihp-sg13g2/sg13g2_io/xschem/sg13g2_Filler4000.sym
** sch_path: /home/designer/designs/openpdk-libraries/ihp-sg13g2/sg13g2_io/xschem/sg13g2_Filler4000.sch
.subckt sg13g2_Filler4000 iovdd iovss1 vdd iovss2 iovss3 vss sub
*.PININFO iovss1:B iovss2:B iovss3:B vss:B iovdd:B vdd:B sub:B
R3 iovss3 sub ptap1 A=478.725p P=88.1u
R4 vss sub ptap1 A=5.85p P=39.6u
* noconn iovdd
* noconn vdd
R1 iovss1 sub ptap1 A=478.92p P=88.12u
R2 iovss2 sub ptap1 A=469.17p P=87.12u
.ends


* expanding   symbol:  sg13g2_Filler1000.sym # of pins=7
** sym_path: /home/designer/designs/openpdk-libraries/ihp-sg13g2/sg13g2_io/xschem/sg13g2_Filler1000.sym
** sch_path: /home/designer/designs/openpdk-libraries/ihp-sg13g2/sg13g2_io/xschem/sg13g2_Filler1000.sch
.subckt sg13g2_Filler1000 iovdd iovss1 vdd iovss2 iovss3 vss sub
*.PININFO iovss1:B iovss2:B iovss3:B vss:B iovdd:B vdd:B sub:B
R3 iovss3 sub ptap1 A=110.475p P=58.1u
R4 vss sub ptap1 A=1.368p P=9.72u
* noconn iovdd
* noconn vdd
R1 iovss1 sub ptap1 A=110.52p P=58.12u
R2 iovss2 sub ptap1 A=108.27p P=57.12u
.ends


* expanding   symbol:  sg13g2_Filler400.sym # of pins=7
** sym_path: /home/designer/designs/openpdk-libraries/ihp-sg13g2/sg13g2_io/xschem/sg13g2_Filler400.sym
** sch_path: /home/designer/designs/openpdk-libraries/ihp-sg13g2/sg13g2_io/xschem/sg13g2_Filler400.sch
.subckt sg13g2_Filler400 iovdd iovss1 vdd iovss2 iovss3 vss sub
*.PININFO iovss1:B iovss2:B iovss3:B vss:B iovdd:B vdd:B sub:B
R3 iovss3 sub ptap1 A=38.298p P=52.22u
R4 vss sub ptap1 A=0.672p P=5.08u
* noconn iovdd
* noconn vdd
R1 iovss1 sub ptap1 A=38.3136p P=52.24u
R2 iovss2 sub ptap1 A=37.5336p P=51.24u
.ends


* expanding   symbol:  sg13g2_Filler200.sym # of pins=7
** sym_path: /home/designer/designs/openpdk-libraries/ihp-sg13g2/sg13g2_io/xschem/sg13g2_Filler200.sym
** sch_path: /home/designer/designs/openpdk-libraries/ihp-sg13g2/sg13g2_io/xschem/sg13g2_Filler200.sch
.subckt sg13g2_Filler200 iovdd iovss1 vdd iovss2 iovss3 vss sub
*.PININFO iovss1:B iovss2:B iovss3:B vss:B iovdd:B vdd:B sub:B
R3 iovss3 sub ptap1 A=13.7536p P=50.24u
R4 vss sub ptap1 A=0.678p P=5.12u
R1 iovss1 sub ptap1 A=13.748p P=50.22u
R2 iovss2 sub ptap1 A=13.4736p P=49.24u
* noconn iovdd
* noconn vdd
.ends


* expanding   symbol:  sg13g2_IOPadVdd.sym # of pins=6
** sym_path: /home/designer/designs/openpdk-libraries/ihp-sg13g2/sg13g2_io/xschem/sg13g2_IOPadVdd.sym
** sch_path: /home/designer/designs/openpdk-libraries/ihp-sg13g2/sg13g2_io/xschem/sg13g2_IOPadVdd.sch
.subckt sg13g2_IOPadVdd vss vdd ! iovss iovdd iovss1
*.PININFO iovdd:B vss:B vdd:B !:B iovss1:B iovss:B
R2 vss ! ptap1 A=24p P=160.6u
R1 iovss1 ! ptap1 A=2051.93485p P=727.53u
x1 iovss vdd vdd vdd vdd vdd vdd vdd vdd vdd vdd vdd vdd vdd vdd vdd vdd vdd vdd vdd vdd vdd vdd ! net2 sg13g2_Clamp_N43N43D4R
x2 vdd net1 ! sg13g2_RCClampResistor
x3 vdd iovss1 net1 net2 ! sg13g2_RCClampInverter_noptap
* noconn iovdd
.ends


* expanding   symbol:  sg13g2_IOPadAnalog.sym # of pins=8
** sym_path: /home/designer/designs/openpdk-libraries/ihp-sg13g2/sg13g2_io/xschem/sg13g2_IOPadAnalog.sym
** sch_path: /home/designer/designs/openpdk-libraries/ihp-sg13g2/sg13g2_io/xschem/sg13g2_IOPadAnalog.sch
.subckt sg13g2_IOPadAnalog iovdd1 vss pad vdd ! padres iovss iovdd
*.PININFO padres:B iovdd:B vss:B vdd:B !:B iovss:B pad:B iovdd1:B
R2 vss ! ptap1 A=23.85p P=159.6u
x1 iovdd iovss pad pad pad pad pad pad pad pad pad pad ! sg13g2_Clamp_P20N0D_noptap
x2 iovdd ! pad pad ! sg13g2_DCPDiode_noptap
x3 iovss pad pad pad pad pad pad pad pad pad pad ! sg13g2_Clamp_N20N0D
x4 pad iovss pad iovdd ! sg13g2_DCNDiode
x5 padres iovdd1 iovss pad ! sg13g2_SecondaryProtection
* noconn vdd
R1 iovss ! ptap1 A=4373.9448p P=1112.3u
.ends


* expanding   symbol:  sg13g2_IOPadIOVdd.sym # of pins=6
** sym_path: /home/designer/designs/openpdk-libraries/ihp-sg13g2/sg13g2_io/xschem/sg13g2_IOPadIOVdd.sym
** sch_path: /home/designer/designs/openpdk-libraries/ihp-sg13g2/sg13g2_io/xschem/sg13g2_IOPadIOVdd.sch
.subckt sg13g2_IOPadIOVdd vss vdd ! iovss iovdd iovss1
*.PININFO iovdd:B vss:B vdd:B !:B iovss1:B iovss:B
R2 vss ! ptap1 A=24p P=160.6u
* noconn vdd
R1 iovss1 ! ptap1 A=2052.0763p P=727.52u
x1 iovss iovdd iovdd iovdd iovdd iovdd iovdd iovdd iovdd iovdd iovdd iovdd iovdd iovdd iovdd iovdd iovdd iovdd iovdd iovdd iovdd
+ iovdd iovdd ! net2 sg13g2_Clamp_N43N43D4R
x2 iovdd net1 ! sg13g2_RCClampResistor
x3 iovdd iovss1 net1 net2 ! sg13g2_RCClampInverter_noptap
.ends


* expanding   symbol:  sg13g2_IOPadIOVss.sym # of pins=5
** sym_path: /home/designer/designs/openpdk-libraries/ihp-sg13g2/sg13g2_io/xschem/sg13g2_IOPadIOVss.sym
** sch_path: /home/designer/designs/openpdk-libraries/ihp-sg13g2/sg13g2_io/xschem/sg13g2_IOPadIOVss.sch
.subckt sg13g2_IOPadIOVss vss vdd sub iovss iovdd
*.PININFO iovdd:B vss:B vdd:B sub:B iovss:B
R2 vss sub ptap1 A=24p P=160.6u
* noconn vdd
R1 iovss sub ptap1 A=5407.1p P=703.48u
x2 iovdd sub iovss iovss sub sg13g2_DCPDiode_noptap
x1 iovss iovss iovss iovdd sub sg13g2_DCNDiode
.ends


* expanding   symbol:  sg13g2_IOPadOut4mA.sym # of pins=8
** sym_path: /home/designer/designs/openpdk-libraries/ihp-sg13g2/sg13g2_io/xschem/sg13g2_IOPadOut4mA.sym
** sch_path: /home/designer/designs/openpdk-libraries/ihp-sg13g2/sg13g2_io/xschem/sg13g2_IOPadOut4mA.sch
.subckt sg13g2_IOPadOut4mA vss vdd sub iovss iovdd1 c2p pad iovdd
*.PININFO iovdd1:B vss:B vdd:B sub:B iovss:B iovdd:B pad:B c2p:B
R2 vss sub ptap1 A=24p P=160.6u
R1 iovss sub ptap1 A=4413.9448p P=953.3u
x2 iovdd sub pad pad sub sg13g2_DCPDiode_noptap
x1 pad iovss pad iovdd sub sg13g2_DCNDiode
x3 iovdd1 vss c2p net1 vdd sub net2 sg13g2_GateLevelUpInv_noptap
x4 net2 pad iovss sub sg13g2_Clamp_N2N2D
x5 net1 iovdd iovss pad sub sg13g2_Clamp_P2N2D_noptap
.ends


* expanding   symbol:  sg13g2_LevelDown_noptap.sym # of pins=7
** sym_path: /home/designer/designs/openpdk-libraries/ihp-sg13g2/sg13g2_io/xschem/sg13g2_LevelDown_noptap.sym
** sch_path: /home/designer/designs/openpdk-libraries/ihp-sg13g2/sg13g2_io/xschem/sg13g2_LevelDown_noptap.sch
.subckt sg13g2_LevelDown_noptap iovdd iovss pad core vdd vss !
*.PININFO iovdd:B vss:B core:B pad:B vdd:B iovss:B !:B
MM5 net2 net1 vdd vdd sg13_hv_pmos w=4.65u l=0.45u ng=1 m=1
MM6 net2 net1 vss ! sg13_hv_nmos w=2.65u l=0.45u ng=1 m=1
MM7 core net2 vss ! sg13_lv_nmos w=2.75u l=0.13u ng=1 m=1
MM8 core net2 vdd vdd sg13_lv_pmos w=4.75u l=0.13u ng=1 m=1
x1 net1 iovdd iovss pad ! sg13g2_SecondaryProtection_noptap
.ends


* expanding   symbol:  sg13g2_DCPDiode_noptap.sym # of pins=5
** sym_path: /home/designer/designs/openpdk-libraries/ihp-sg13g2/sg13g2_io/xschem/sg13g2_DCPDiode_noptap.sym
** sch_path: /home/designer/designs/openpdk-libraries/ihp-sg13g2/sg13g2_io/xschem/sg13g2_DCPDiode_noptap.sch
.subckt sg13g2_DCPDiode_noptap cathode guard anode1 anode2 sub
*.PININFO anode2:B cathode:B guard:B anode1:B sub:B
DD1 anode1 cathode dpantenna l=27.78u w=1.26u
DD2 anode2 cathode dpantenna l=27.78u w=1.26u
.ends


* expanding   symbol:  sg13g2_DCNDiode.sym # of pins=5
** sym_path: /home/designer/designs/openpdk-libraries/ihp-sg13g2/sg13g2_io/xschem/sg13g2_DCNDiode.sym
** sch_path: /home/designer/designs/openpdk-libraries/ihp-sg13g2/sg13g2_io/xschem/sg13g2_DCNDiode.sch
.subckt sg13g2_DCNDiode cathode1 anode cathode2 guard sub
*.PININFO cathode2:B guard:B anode:B cathode1:B sub:B
R1 anode sub ptap1 A=141.2964p P=221.76u
DD1 sub cathode1 dantenna l=27.78u w=1.26u
* noconn guard
DD2 sub cathode2 dantenna l=27.78u w=1.26u
.ends


* expanding   symbol:  sg13g2_Clamp_N43N43D4R.sym # of pins=4
** sym_path: /home/designer/designs/openpdk-libraries/ihp-sg13g2/sg13g2_io/xschem/sg13g2_Clamp_N43N43D4R.sym
** sch_path: /home/designer/designs/openpdk-libraries/ihp-sg13g2/sg13g2_io/xschem/sg13g2_Clamp_N43N43D4R.sch
.subckt sg13g2_Clamp_N43N43D4R iovss pad[21] pad[20] pad[19] pad[18] pad[17] pad[16] pad[15] pad[14] pad[13] pad[12] pad[11]
+ pad[10] pad[9] pad[8] pad[7] pad[6] pad[5] pad[4] pad[3] pad[2] pad[1] pad[0] sub gate
*.PININFO iovss:B pad[21:0]:B sub:B gate:B
R1 iovss sub ptap1 A=65.6472p P=386.16u
MM1 pad[11] gate iovss sub sg13_hv_nmos w=35.2u l=0.6u ng=8 m=1
MM2 pad[12] gate iovss sub sg13_hv_nmos w=35.2u l=0.6u ng=8 m=1
MM3 pad[13] gate iovss sub sg13_hv_nmos w=35.2u l=0.6u ng=8 m=1
MM4 pad[14] gate iovss sub sg13_hv_nmos w=35.2u l=0.6u ng=8 m=1
MM5 pad[15] gate iovss sub sg13_hv_nmos w=35.2u l=0.6u ng=8 m=1
MM6 pad[16] gate iovss sub sg13_hv_nmos w=35.2u l=0.6u ng=8 m=1
MM7 pad[17] gate iovss sub sg13_hv_nmos w=35.2u l=0.6u ng=8 m=1
MM8 pad[18] gate iovss sub sg13_hv_nmos w=35.2u l=0.6u ng=8 m=1
MM9 pad[19] gate iovss sub sg13_hv_nmos w=35.2u l=0.6u ng=8 m=1
MM10 pad[20] gate iovss sub sg13_hv_nmos w=35.2u l=0.6u ng=8 m=1
MM11 pad[21] gate iovss sub sg13_hv_nmos w=17.6u l=0.6u ng=4 m=1
DD1 sub gate dantenna l=0.48u w=0.48u
MM12 pad[0] gate iovss sub sg13_hv_nmos w=35.2u l=0.6u ng=8 m=1
MM13 pad[1] gate iovss sub sg13_hv_nmos w=35.2u l=0.6u ng=8 m=1
MM14 pad[2] gate iovss sub sg13_hv_nmos w=35.2u l=0.6u ng=8 m=1
MM15 pad[3] gate iovss sub sg13_hv_nmos w=35.2u l=0.6u ng=8 m=1
MM16 pad[4] gate iovss sub sg13_hv_nmos w=35.2u l=0.6u ng=8 m=1
MM17 pad[5] gate iovss sub sg13_hv_nmos w=35.2u l=0.6u ng=8 m=1
MM18 pad[6] gate iovss sub sg13_hv_nmos w=35.2u l=0.6u ng=8 m=1
MM19 pad[7] gate iovss sub sg13_hv_nmos w=35.2u l=0.6u ng=8 m=1
MM20 pad[8] gate iovss sub sg13_hv_nmos w=35.2u l=0.6u ng=8 m=1
MM21 pad[9] gate iovss sub sg13_hv_nmos w=35.2u l=0.6u ng=8 m=1
MM22 pad[10] gate iovss sub sg13_hv_nmos w=35.2u l=0.6u ng=8 m=1
.ends


* expanding   symbol:  sg13g2_RCClampResistor.sym # of pins=3
** sym_path: /home/designer/designs/openpdk-libraries/ihp-sg13g2/sg13g2_io/xschem/sg13g2_RCClampResistor.sym
** sch_path: /home/designer/designs/openpdk-libraries/ihp-sg13g2/sg13g2_io/xschem/sg13g2_RCClampResistor.sch
.subckt sg13g2_RCClampResistor p1 p2 !
*.PININFO p1:B p2:B !:B
RR1 p1 p2 $SUB=sub! $[rppd] w=1e-6 l=520e-6 b=0 m=1
.ends


* expanding   symbol:  sg13g2_RCClampInverter_noptap.sym # of pins=5
** sym_path: /home/designer/designs/openpdk-libraries/ihp-sg13g2/sg13g2_io/xschem/sg13g2_RCClampInverter_noptap.sym
** sch_path: /home/designer/designs/openpdk-libraries/ihp-sg13g2/sg13g2_io/xschem/sg13g2_RCClampInverter_noptap.sch
.subckt sg13g2_RCClampInverter_noptap supply iovss in out sub
*.PININFO supply:B iovss:B out:B in:B sub:B
MM1 iovss in iovss sub sg13_hv_nmos w=126u l=9.5u ng=14 m=1
MM2 out in iovss sub sg13_hv_nmos w=108u l=0.5u ng=12 m=1
MM3 out in supply supply sg13_hv_pmos w=350u l=0.5u ng=50 m=1
.ends


* expanding   symbol:  sg13g2_Clamp_P20N0D_noptap.sym # of pins=4
** sym_path: /home/designer/designs/openpdk-libraries/ihp-sg13g2/sg13g2_io/xschem/sg13g2_Clamp_P20N0D_noptap.sym
** sch_path: /home/designer/designs/openpdk-libraries/ihp-sg13g2/sg13g2_io/xschem/sg13g2_Clamp_P20N0D_noptap.sch
.subckt sg13g2_Clamp_P20N0D_noptap ! iovss pad[9] pad[8] pad[7] pad[6] pad[5] pad[4] pad[3] pad[2] pad[1] pad[0] sub
*.PININFO iovss:B !:B pad[9:0]:B sub:B
MM1 pad[0] net1 ! ! sg13_hv_pmos w=26.64u l=0.6u ng=4 m=1
MM2 pad[1] net1 ! ! sg13_hv_pmos w=26.64u l=0.6u ng=4 m=1
MM3 pad[2] net1 ! ! sg13_hv_pmos w=26.64u l=0.6u ng=4 m=1
MM4 pad[3] net1 ! ! sg13_hv_pmos w=26.64u l=0.6u ng=4 m=1
MM5 pad[4] net1 ! ! sg13_hv_pmos w=26.64u l=0.6u ng=4 m=1
MM6 pad[5] net1 ! ! sg13_hv_pmos w=26.64u l=0.6u ng=4 m=1
MM7 pad[6] net1 ! ! sg13_hv_pmos w=26.64u l=0.6u ng=4 m=1
MM8 pad[7] net1 ! ! sg13_hv_pmos w=26.64u l=0.6u ng=4 m=1
MM9 pad[8] net1 ! ! sg13_hv_pmos w=26.64u l=0.6u ng=4 m=1
MM10 pad[9] net1 ! ! sg13_hv_pmos w=26.64u l=0.6u ng=4 m=1
RR1 ! net1 $SUB=sub! $[rppd] w=0.5e-6 l=12.9e-6 b=0 m=1
.ends


* expanding   symbol:  sg13g2_Clamp_N20N0D.sym # of pins=3
** sym_path: /home/designer/designs/openpdk-libraries/ihp-sg13g2/sg13g2_io/xschem/sg13g2_Clamp_N20N0D.sym
** sch_path: /home/designer/designs/openpdk-libraries/ihp-sg13g2/sg13g2_io/xschem/sg13g2_Clamp_N20N0D.sch
.subckt sg13g2_Clamp_N20N0D iovss pad[9] pad[8] pad[7] pad[6] pad[5] pad[4] pad[3] pad[2] pad[1] pad[0] !
*.PININFO iovss:B pad[9:0]:B !:B
R1 iovss ! ptap1 A=55.7736p P=328.08u
MM1 pad[0] net1 iovss ! sg13_hv_nmos w=8.8u l=0.6u ng=2 m=1
MM2 pad[1] net1 iovss ! sg13_hv_nmos w=8.8u l=0.6u ng=2 m=1
MM3 pad[2] net1 iovss ! sg13_hv_nmos w=8.8u l=0.6u ng=2 m=1
MM4 pad[3] net1 iovss ! sg13_hv_nmos w=8.8u l=0.6u ng=2 m=1
MM5 pad[4] net1 iovss ! sg13_hv_nmos w=8.8u l=0.6u ng=2 m=1
MM6 pad[5] net1 iovss ! sg13_hv_nmos w=8.8u l=0.6u ng=2 m=1
MM7 pad[6] net1 iovss ! sg13_hv_nmos w=8.8u l=0.6u ng=2 m=1
MM8 pad[7] net1 iovss ! sg13_hv_nmos w=8.8u l=0.6u ng=2 m=1
MM9 pad[8] net1 iovss ! sg13_hv_nmos w=8.8u l=0.6u ng=2 m=1
MM10 pad[9] net1 iovss ! sg13_hv_nmos w=8.8u l=0.6u ng=2 m=1
RR3 net1 iovss $SUB=sub! $[rppd] w=0.5e-6 l=3.54e-6 b=0 m=1
.ends


* expanding   symbol:  sg13g2_SecondaryProtection.sym # of pins=5
** sym_path: /home/designer/designs/openpdk-libraries/ihp-sg13g2/sg13g2_io/xschem/sg13g2_SecondaryProtection.sym