** sch_path: /foss/designs/Design/UNICASS/unic-cass-analog-team3/designs/libs/IHP__MPC0349/MPC0349-main/schematic/xschem/MPC0349.sch
**.subckt MPC0349
x1 VDD3 VSS3 analog_io[0] net5 analog_io[1] analog_io_padres[19] ui_PAD[2] analog_io[20_21] analog_io[20_21] ui_PAD[3]
+ analog_io_padres[22] analog_io[4] analog_io[5] analog_io[24_23] analog_io[6] analog_io[24_23] analog_io_padres[25] analog_io[7] net4 uo_PAD[8]
+ analog_io[27] net6 net7 analog_io[28] net8 analog_io[29] net9 analog_io[30] ui_PAD[31] net10 analog_io[32] net11 net12 analog_io[33] net13
+ analog_io[34] net14 analog_io[35] net3 net2 VDD1 VSS1 IOVDD1 IOVSS1 IOVDD4 IOVSS4 VDD4 VSS4 analog_io_padres[28] analog_io_padres[29]
+ analog_io_padres[33] analog_io_padres[34] ui_P2C[31] uo_c2p[8] analog_io_padres[6] analog_io_padres[0] analog_io_padres[1] ui_p2c[2] uo_c2p[3]
+ analog_io_padres[5] ui_p2c[9] user_project_wrapper
x2 VDD1 analog_io_padres[5] analog_io[7] analog_io[4] analog_io_padres[0] ui_p2c[9] uo_c2p[8] analog_io_padres[6] VSS1 555
x3 VDD3 analog_io_padres[22] analog_io[20_21] analog_io[24_23] analog_io_padres[19] analog_io_padres[25] VSS3 HPA
x4 VDD4 analog_io_padres[34] ui_P2C[31] analog_io[32] net1 analog_io_padres[33] analog_io[35] analog_io_padres[29]
+ analog_io_padres[28] analog_io[27] analog_io[30] TOP_ROILIFNEURON
x6 net15 net16 net17 net18 net19 net20 net21 net22 net23 net24 QDLL_TOP
x5 VDD1 analog_io_padres[1] analog_io_padres[0] uo_c2p[3] ui_p2c[2] VSS1 PWMADCSYM
* noconn #net4
* noconn #net3
* noconn #net2
* noconn #net5
**.ends

* expanding   symbol:  IHP__MPC0349/MPC0349-main/schematic/xschem/user_project_wrapper.sym # of pins=65
** sym_path: /foss/designs/Design/UNICASS/unic-cass-analog-team3/designs/libs/IHP__MPC0349/MPC0349-main/schematic/xschem/user_project_wrapper.sym
** sch_path: /foss/designs/Design/UNICASS/unic-cass-analog-team3/designs/libs/IHP__MPC0349/MPC0349-main/schematic/xschem/user_project_wrapper.sch
.subckt user_project_wrapper VDD3 VSS3 analog_io[0] analog_io[18] analog_io[1] analog_io[19] ui_PAD[2] analog_io[20] analog_io[21]
+ uo_PAD[3] analog_io_padres[22] analog_io[4] analog_io[5] analog_io[23] analog_io[6] analog_io[24] analog_io[25] analog_io[7] analog_io[26]
+ uo_PAD[8] analog_io[27] ui_PAD[9] analog_io[10] analog_io[28] analog_io[11] analog_io[29] analog_io[12] analog_io[30] ui_PAD[31]
+ analog_io[13] analog_io[32] analog_io[14] analog_io[15] analog_io[33] analog_io[16] analog_io[34] analog_io[17] analog_io[35] IOVDD3 IOVSS3
+ VDD1 VSS1 IOVDD1 IOVSS1 IOVDD IOVSS VDD VSS analog_io_padres[28] analog_io_padres[29] analog_io_padres[33] analog_io_padres[34]
+ ui_p2c[31] uo_c2p[8] analog_io_padres[6] analog_io_padres[0] analog_io_padres[1] ui_p2c[2] uo_c2p[3] analog_io_padres[5] ui_p2c[9]
*.iopin VSS1
*.iopin VDD1
*.iopin IOVDD1
*.iopin IOVSS1
*.iopin analog_io[35],analog_io[34],analog_io[33],analog_io[32]
*.iopin
*+ analog_io[30],analog_io[29],analog_io[28],analog_io[27],analog_io[26],analog_io[25],analog_io[24],analog_io[23],analog_io[22],analog_io[21],analog_io[20],analog_io[19],analog_io[18],analog_io[17],analog_io[16],analog_io[15],analog_io[14],analog_io[13],analog_io[12],analog_io[11],analog_io[10]
*.iopin analog_io[7],analog_io[6],analog_io[5],analog_io[4]
*.iopin analog_io[1],analog_io[0]
*.iopin ui_PAD[31]
*.iopin ui_PAD[9]
*.iopin uo_PAD[8]
*.iopin uo_PAD[3]
*.iopin ui_PAD[2]
*.iopin VSS2
*.iopin VDD2
*.iopin IOVDD2
*.iopin IOVSS2
*.iopin VSS3
*.iopin VDD3
*.iopin IOVDD3
*.iopin IOVSS3
*.iopin VSS4
*.iopin VDD4
*.iopin IOVDD4
*.iopin IOVSS4
*.iopin analog_io_padres[29],analog_io_padres[28]
*.iopin analog_io_padres[34],analog_io_padres[33]
*.iopin ui_p2c[31]
*.iopin ui_p2c[9]
*.iopin ui_p2c[2]
*.iopin analog_io_padres[5],analog_io_padres[6]
*.iopin analog_io_padres[0],analog_io_padres[1]
*.iopin uo_c2p[8]
*.iopin uo_c2p[3]
x5 IOVDD1 VDD1 VSS1 SUB IOVSS1 IOVSS1 IOVSS1 sg13g2_Corner_noptap
x6 VSS1 VDD1 SUB IOVSS1 IOVDD1 IOVSS1 ui_PAD[9] ui_p2c[9] sg13g2_IOPadIn
x10 VSS2 VDD2 SUB IOVSS2 IOVDD2 IOVSS2 sg13g2_IOPadVss
x11[7] IOVDD IOVSS VDD IOVSS IOVSS VSS SUB sg13g2_Filler4000
x11[6] IOVDD IOVSS VDD IOVSS IOVSS VSS SUB sg13g2_Filler4000
x11[5] IOVDD IOVSS VDD IOVSS IOVSS VSS SUB sg13g2_Filler4000
x11[4] IOVDD IOVSS VDD IOVSS IOVSS VSS SUB sg13g2_Filler4000
x11[3] IOVDD IOVSS VDD IOVSS IOVSS VSS SUB sg13g2_Filler4000
x11[2] IOVDD IOVSS VDD IOVSS IOVSS VSS SUB sg13g2_Filler4000
x11[1] IOVDD IOVSS VDD IOVSS IOVSS VSS SUB sg13g2_Filler4000
x11[0] IOVDD IOVSS VDD IOVSS IOVSS VSS SUB sg13g2_Filler4000
x12[7] IOVDD IOVSS VDD IOVSS IOVSS VSS SUB sg13g2_Filler1000
x12[6] IOVDD IOVSS VDD IOVSS IOVSS VSS SUB sg13g2_Filler1000
x12[5] IOVDD IOVSS VDD IOVSS IOVSS VSS SUB sg13g2_Filler1000
x12[4] IOVDD IOVSS VDD IOVSS IOVSS VSS SUB sg13g2_Filler1000
x12[3] IOVDD IOVSS VDD IOVSS IOVSS VSS SUB sg13g2_Filler1000
x12[2] IOVDD IOVSS VDD IOVSS IOVSS VSS SUB sg13g2_Filler1000
x12[1] IOVDD IOVSS VDD IOVSS IOVSS VSS SUB sg13g2_Filler1000
x12[0] IOVDD IOVSS VDD IOVSS IOVSS VSS SUB sg13g2_Filler1000
x13[7] IOVDD IOVSS VDD IOVSS IOVSS VSS SUB sg13g2_Filler400
x13[6] IOVDD IOVSS VDD IOVSS IOVSS VSS SUB sg13g2_Filler400
x13[5] IOVDD IOVSS VDD IOVSS IOVSS VSS SUB sg13g2_Filler400
x13[4] IOVDD IOVSS VDD IOVSS IOVSS VSS SUB sg13g2_Filler400
x13[3] IOVDD IOVSS VDD IOVSS IOVSS VSS SUB sg13g2_Filler400
x13[2] IOVDD IOVSS VDD IOVSS IOVSS VSS SUB sg13g2_Filler400
x13[1] IOVDD IOVSS VDD IOVSS IOVSS VSS SUB sg13g2_Filler400
x13[0] IOVDD IOVSS VDD IOVSS IOVSS VSS SUB sg13g2_Filler400
x14[7] IOVDD IOVSS VDD IOVSS IOVSS VSS SUB sg13g2_Filler200
x14[6] IOVDD IOVSS VDD IOVSS IOVSS VSS SUB sg13g2_Filler200
x14[5] IOVDD IOVSS VDD IOVSS IOVSS VSS SUB sg13g2_Filler200
x14[4] IOVDD IOVSS VDD IOVSS IOVSS VSS SUB sg13g2_Filler200
x14[3] IOVDD IOVSS VDD IOVSS IOVSS VSS SUB sg13g2_Filler200
x14[2] IOVDD IOVSS VDD IOVSS IOVSS VSS SUB sg13g2_Filler200
x14[1] IOVDD IOVSS VDD IOVSS IOVSS VSS SUB sg13g2_Filler200
x14[0] IOVDD IOVSS VDD IOVSS IOVSS VSS SUB sg13g2_Filler200
x15 VSS2 VDD2 SUB IOVSS2 IOVDD2 IOVSS2 sg13g2_IOPadVdd
x16[47] IOVDD IOVSS VDD IOVSS IOVSS VSS SUB sg13g2_Filler4000
x16[46] IOVDD IOVSS VDD IOVSS IOVSS VSS SUB sg13g2_Filler4000
x16[45] IOVDD IOVSS VDD IOVSS IOVSS VSS SUB sg13g2_Filler4000
x16[44] IOVDD IOVSS VDD IOVSS IOVSS VSS SUB sg13g2_Filler4000
x16[43] IOVDD IOVSS VDD IOVSS IOVSS VSS SUB sg13g2_Filler4000
x16[42] IOVDD IOVSS VDD IOVSS IOVSS VSS SUB sg13g2_Filler4000
x16[41] IOVDD IOVSS VDD IOVSS IOVSS VSS SUB sg13g2_Filler4000
x16[40] IOVDD IOVSS VDD IOVSS IOVSS VSS SUB sg13g2_Filler4000
x16[39] IOVDD IOVSS VDD IOVSS IOVSS VSS SUB sg13g2_Filler4000
x16[38] IOVDD IOVSS VDD IOVSS IOVSS VSS SUB sg13g2_Filler4000
x16[37] IOVDD IOVSS VDD IOVSS IOVSS VSS SUB sg13g2_Filler4000
x16[36] IOVDD IOVSS VDD IOVSS IOVSS VSS SUB sg13g2_Filler4000
x16[35] IOVDD IOVSS VDD IOVSS IOVSS VSS SUB sg13g2_Filler4000
x16[34] IOVDD IOVSS VDD IOVSS IOVSS VSS SUB sg13g2_Filler4000
x16[33] IOVDD IOVSS VDD IOVSS IOVSS VSS SUB sg13g2_Filler4000
x16[32] IOVDD IOVSS VDD IOVSS IOVSS VSS SUB sg13g2_Filler4000
x16[31] IOVDD IOVSS VDD IOVSS IOVSS VSS SUB sg13g2_Filler4000
x16[30] IOVDD IOVSS VDD IOVSS IOVSS VSS SUB sg13g2_Filler4000
x16[29] IOVDD IOVSS VDD IOVSS IOVSS VSS SUB sg13g2_Filler4000
x16[28] IOVDD IOVSS VDD IOVSS IOVSS VSS SUB sg13g2_Filler4000
x16[27] IOVDD IOVSS VDD IOVSS IOVSS VSS SUB sg13g2_Filler4000
x16[26] IOVDD IOVSS VDD IOVSS IOVSS VSS SUB sg13g2_Filler4000
x16[25] IOVDD IOVSS VDD IOVSS IOVSS VSS SUB sg13g2_Filler4000
x16[24] IOVDD IOVSS VDD IOVSS IOVSS VSS SUB sg13g2_Filler4000
x16[23] IOVDD IOVSS VDD IOVSS IOVSS VSS SUB sg13g2_Filler4000
x16[22] IOVDD IOVSS VDD IOVSS IOVSS VSS SUB sg13g2_Filler4000
x16[21] IOVDD IOVSS VDD IOVSS IOVSS VSS SUB sg13g2_Filler4000
x16[20] IOVDD IOVSS VDD IOVSS IOVSS VSS SUB sg13g2_Filler4000
x16[19] IOVDD IOVSS VDD IOVSS IOVSS VSS SUB sg13g2_Filler4000
x16[18] IOVDD IOVSS VDD IOVSS IOVSS VSS SUB sg13g2_Filler4000
x16[17] IOVDD IOVSS VDD IOVSS IOVSS VSS SUB sg13g2_Filler4000
x16[16] IOVDD IOVSS VDD IOVSS IOVSS VSS SUB sg13g2_Filler4000
x16[15] IOVDD IOVSS VDD IOVSS IOVSS VSS SUB sg13g2_Filler4000
x16[14] IOVDD IOVSS VDD IOVSS IOVSS VSS SUB sg13g2_Filler4000
x16[13] IOVDD IOVSS VDD IOVSS IOVSS VSS SUB sg13g2_Filler4000
x16[12] IOVDD IOVSS VDD IOVSS IOVSS VSS SUB sg13g2_Filler4000
x16[11] IOVDD IOVSS VDD IOVSS IOVSS VSS SUB sg13g2_Filler4000
x16[10] IOVDD IOVSS VDD IOVSS IOVSS VSS SUB sg13g2_Filler4000
x16[9] IOVDD IOVSS VDD IOVSS IOVSS VSS SUB sg13g2_Filler4000
x16[8] IOVDD IOVSS VDD IOVSS IOVSS VSS SUB sg13g2_Filler4000
x16[7] IOVDD IOVSS VDD IOVSS IOVSS VSS SUB sg13g2_Filler4000
x16[6] IOVDD IOVSS VDD IOVSS IOVSS VSS SUB sg13g2_Filler4000
x16[5] IOVDD IOVSS VDD IOVSS IOVSS VSS SUB sg13g2_Filler4000
x16[4] IOVDD IOVSS VDD IOVSS IOVSS VSS SUB sg13g2_Filler4000
x16[3] IOVDD IOVSS VDD IOVSS IOVSS VSS SUB sg13g2_Filler4000
x16[2] IOVDD IOVSS VDD IOVSS IOVSS VSS SUB sg13g2_Filler4000
x16[1] IOVDD IOVSS VDD IOVSS IOVSS VSS SUB sg13g2_Filler4000
x16[0] IOVDD IOVSS VDD IOVSS IOVSS VSS SUB sg13g2_Filler4000
x17[47] IOVDD IOVSS VDD IOVSS IOVSS VSS SUB sg13g2_Filler400
x17[46] IOVDD IOVSS VDD IOVSS IOVSS VSS SUB sg13g2_Filler400
x17[45] IOVDD IOVSS VDD IOVSS IOVSS VSS SUB sg13g2_Filler400
x17[44] IOVDD IOVSS VDD IOVSS IOVSS VSS SUB sg13g2_Filler400
x17[43] IOVDD IOVSS VDD IOVSS IOVSS VSS SUB sg13g2_Filler400
x17[42] IOVDD IOVSS VDD IOVSS IOVSS VSS SUB sg13g2_Filler400
x17[41] IOVDD IOVSS VDD IOVSS IOVSS VSS SUB sg13g2_Filler400
x17[40] IOVDD IOVSS VDD IOVSS IOVSS VSS SUB sg13g2_Filler400
x17[39] IOVDD IOVSS VDD IOVSS IOVSS VSS SUB sg13g2_Filler400
x17[38] IOVDD IOVSS VDD IOVSS IOVSS VSS SUB sg13g2_Filler400
x17[37] IOVDD IOVSS VDD IOVSS IOVSS VSS SUB sg13g2_Filler400
x17[36] IOVDD IOVSS VDD IOVSS IOVSS VSS SUB sg13g2_Filler400
x17[35] IOVDD IOVSS VDD IOVSS IOVSS VSS SUB sg13g2_Filler400
x17[34] IOVDD IOVSS VDD IOVSS IOVSS VSS SUB sg13g2_Filler400
x17[33] IOVDD IOVSS VDD IOVSS IOVSS VSS SUB sg13g2_Filler400
x17[32] IOVDD IOVSS VDD IOVSS IOVSS VSS SUB sg13g2_Filler400
x17[31] IOVDD IOVSS VDD IOVSS IOVSS VSS SUB sg13g2_Filler400
x17[30] IOVDD IOVSS VDD IOVSS IOVSS VSS SUB sg13g2_Filler400
x17[29] IOVDD IOVSS VDD IOVSS IOVSS VSS SUB sg13g2_Filler400
x17[28] IOVDD IOVSS VDD IOVSS IOVSS VSS SUB sg13g2_Filler400
x17[27] IOVDD IOVSS VDD IOVSS IOVSS VSS SUB sg13g2_Filler400
x17[26] IOVDD IOVSS VDD IOVSS IOVSS VSS SUB sg13g2_Filler400
x17[25] IOVDD IOVSS VDD IOVSS IOVSS VSS SUB sg13g2_Filler400
x17[24] IOVDD IOVSS VDD IOVSS IOVSS VSS SUB sg13g2_Filler400
x17[23] IOVDD IOVSS VDD IOVSS IOVSS VSS SUB sg13g2_Filler400
x17[22] IOVDD IOVSS VDD IOVSS IOVSS VSS SUB sg13g2_Filler400
x17[21] IOVDD IOVSS VDD IOVSS IOVSS VSS SUB sg13g2_Filler400
x17[20] IOVDD IOVSS VDD IOVSS IOVSS VSS SUB sg13g2_Filler400
x17[19] IOVDD IOVSS VDD IOVSS IOVSS VSS SUB sg13g2_Filler400
x17[18] IOVDD IOVSS VDD IOVSS IOVSS VSS SUB sg13g2_Filler400
x17[17] IOVDD IOVSS VDD IOVSS IOVSS VSS SUB sg13g2_Filler400
x17[16] IOVDD IOVSS VDD IOVSS IOVSS VSS SUB sg13g2_Filler400
x17[15] IOVDD IOVSS VDD IOVSS IOVSS VSS SUB sg13g2_Filler400
x17[14] IOVDD IOVSS VDD IOVSS IOVSS VSS SUB sg13g2_Filler400
x17[13] IOVDD IOVSS VDD IOVSS IOVSS VSS SUB sg13g2_Filler400
x17[12] IOVDD IOVSS VDD IOVSS IOVSS VSS SUB sg13g2_Filler400
x17[11] IOVDD IOVSS VDD IOVSS IOVSS VSS SUB sg13g2_Filler400
x17[10] IOVDD IOVSS VDD IOVSS IOVSS VSS SUB sg13g2_Filler400
x17[9] IOVDD IOVSS VDD IOVSS IOVSS VSS SUB sg13g2_Filler400
x17[8] IOVDD IOVSS VDD IOVSS IOVSS VSS SUB sg13g2_Filler400
x17[7] IOVDD IOVSS VDD IOVSS IOVSS VSS SUB sg13g2_Filler400
x17[6] IOVDD IOVSS VDD IOVSS IOVSS VSS SUB sg13g2_Filler400
x17[5] IOVDD IOVSS VDD IOVSS IOVSS VSS SUB sg13g2_Filler400
x17[4] IOVDD IOVSS VDD IOVSS IOVSS VSS SUB sg13g2_Filler400
x17[3] IOVDD IOVSS VDD IOVSS IOVSS VSS SUB sg13g2_Filler400
x17[2] IOVDD IOVSS VDD IOVSS IOVSS VSS SUB sg13g2_Filler400
x17[1] IOVDD IOVSS VDD IOVSS IOVSS VSS SUB sg13g2_Filler400
x17[0] IOVDD IOVSS VDD IOVSS IOVSS VSS SUB sg13g2_Filler400
x1 IOVDD2 VSS2 analog_io[10] VDD2 SUB net1 IOVSS2 IOVDD2 sg13g2_IOPadAnalog
x2 IOVDD2 VSS2 analog_io[11] VDD2 SUB net2 IOVSS2 IOVDD2 sg13g2_IOPadAnalog
x3 IOVDD2 VSS2 analog_io[12] VDD2 SUB net3 IOVSS2 IOVDD2 sg13g2_IOPadAnalog
x4 IOVDD2 VSS2 analog_io[13] VDD2 SUB net4 IOVSS2 IOVDD2 sg13g2_IOPadAnalog
x11 IOVDD2 VSS2 analog_io[14] VDD2 SUB net5 IOVSS2 IOVDD2 sg13g2_IOPadAnalog
x12 IOVDD2 VSS2 analog_io[15] VDD2 SUB net6 IOVSS2 IOVDD2 sg13g2_IOPadAnalog
x13 IOVDD2 VSS2 analog_io[16] VDD2 SUB net7 IOVSS2 IOVDD2 sg13g2_IOPadAnalog
x14 IOVDD2 VSS2 analog_io[17] VDD2 SUB net8 IOVSS2 IOVDD2 sg13g2_IOPadAnalog
x16 VSS2 VDD2 SUB IOVSS2 IOVDD2 IOVSS2 sg13g2_IOPadIOVdd
x17 VSS2 VDD2 SUB IOVSS2 IOVDD2 sg13g2_IOPadIOVss
* noconn #net1
* noconn #net2
* noconn #net3
* noconn #net4
* noconn #net5
* noconn #net6
* noconn #net7
* noconn #net8
x7 IOVDD2 VDD2 VSS2 SUB IOVSS2 IOVSS2 IOVSS2 sg13g2_Corner_noptap
x8 IOVDD3 VSS3 analog_io[18] VDD3 SUB net9 IOVSS3 IOVDD3 sg13g2_IOPadAnalog
x9 VSS3 VDD3 SUB IOVSS3 IOVDD3 IOVSS3 sg13g2_IOPadVss
x18 VSS3 VDD3 SUB IOVSS3 IOVDD3 IOVSS3 sg13g2_IOPadVdd
x19 IOVDD3 VSS3 analog_io[19] VDD3 SUB net10 IOVSS3 IOVDD3 sg13g2_IOPadAnalog
x20 IOVDD3 VSS3 analog_io[20] VDD3 SUB net11 IOVSS3 IOVDD3 sg13g2_IOPadAnalog
x21 IOVDD3 VSS3 analog_io[21] VDD3 SUB net12 IOVSS3 IOVDD3 sg13g2_IOPadAnalog
x22 IOVDD3 VSS3 analog_io[22] VDD3 SUB net13 IOVSS3 IOVDD3 sg13g2_IOPadAnalog
x23 IOVDD3 VSS3 analog_io[23] VDD3 SUB net14 IOVSS3 IOVDD3 sg13g2_IOPadAnalog
x24 IOVDD3 VSS3 analog_io[24] VDD3 SUB net15 IOVSS3 IOVDD3 sg13g2_IOPadAnalog
x25 IOVDD3 VSS3 analog_io[25] VDD3 SUB net16 IOVSS3 IOVDD3 sg13g2_IOPadAnalog
x26 IOVDD3 VSS3 analog_io[26] VDD3 SUB net17 IOVSS3 IOVDD3 sg13g2_IOPadAnalog
x27 VSS3 VDD3 SUB IOVSS3 IOVDD3 IOVSS3 sg13g2_IOPadIOVdd
x28 VSS3 VDD3 SUB IOVSS3 IOVDD3 sg13g2_IOPadIOVss
* noconn #net9
* noconn #net10
* noconn #net11
* noconn #net12
* noconn #net13
* noconn #net14
* noconn #net15
* noconn #net16
* noconn #net17
* noconn SUB
x29 IOVDD3 VDD3 VSS3 SUB IOVSS3 IOVSS3 IOVSS3 sg13g2_Corner_noptap
x30 IOVDD4 VSS4 analog_io[35] VDD4 SUB net18 IOVSS4 IOVDD4 sg13g2_IOPadAnalog
x31 VSS4 VDD4 SUB IOVSS4 IOVDD4 IOVSS4 sg13g2_IOPadIOVdd
x32 VSS4 VDD4 SUB IOVSS4 IOVDD4 sg13g2_IOPadIOVss
x33 IOVDD4 VSS4 analog_io[34] VDD4 SUB analog_io_padres[34] IOVSS4 IOVDD4 sg13g2_IOPadAnalog
x34 IOVDD4 VSS4 analog_io[33] VDD4 SUB analog_io_padres[33] IOVSS4 IOVDD4 sg13g2_IOPadAnalog
x35 IOVDD4 VSS4 analog_io[32] VDD4 SUB net19 IOVSS4 IOVDD4 sg13g2_IOPadAnalog
x36 VSS4 VDD4 SUB IOVSS4 IOVDD4 IOVSS4 ui_PAD[31] ui_p2c[31] sg13g2_IOPadIn
x37 IOVDD4 VSS4 analog_io[30] VDD4 SUB net20 IOVSS4 IOVDD4 sg13g2_IOPadAnalog
x38 IOVDD4 VSS4 analog_io[29] VDD4 SUB analog_io_padres[29] IOVSS4 IOVDD4 sg13g2_IOPadAnalog
x39 IOVDD4 VSS4 analog_io[28] VDD4 SUB analog_io_padres[28] IOVSS4 IOVDD4 sg13g2_IOPadAnalog
x40 IOVDD4 VSS4 analog_io[27] VDD4 SUB net21 IOVSS4 IOVDD4 sg13g2_IOPadAnalog
x41 VSS4 VDD4 SUB IOVSS4 IOVDD4 IOVSS4 sg13g2_IOPadVdd
x42 VSS4 VDD4 SUB IOVSS4 IOVDD4 IOVSS4 sg13g2_IOPadVss
* noconn #net18
* noconn #net19
* noconn #net20
* noconn #net21
* noconn SUB
x43 IOVDD4 VDD4 VSS4 SUB IOVSS4 IOVSS4 IOVSS4 sg13g2_Corner_noptap
x44 IOVSS1 IOVDD1 SUB VSS1 VDD1 uo_PAD[8] uo_c2p[8] VDD1 sg13g2_IOPadOut4mA
x45 VSS1 VDD1 SUB IOVSS1 IOVDD1 IOVSS1 sg13g2_IOPadIOVdd
x46 VSS1 VDD1 SUB IOVSS1 IOVDD1 sg13g2_IOPadIOVss
x47 IOVDD1 VSS1 analog_io[7] VDD1 SUB net22 IOVSS1 IOVDD1 sg13g2_IOPadAnalog
x48 IOVDD1 VSS1 analog_io[6] VDD1 SUB analog_io_padres[6] IOVSS1 IOVDD1 sg13g2_IOPadAnalog
x49 IOVDD1 VSS1 analog_io[5] VDD1 SUB analog_io_padres[5] IOVSS1 IOVDD1 sg13g2_IOPadAnalog
x50 IOVDD1 VSS1 analog_io[4] VDD1 SUB net23 IOVSS1 IOVDD1 sg13g2_IOPadAnalog
x51 IOVSS1 IOVDD1 SUB VSS1 VDD1 uo_PAD[3] uo_c2p[3] VDD1 sg13g2_IOPadOut4mA
x52 VSS1 VDD1 SUB IOVSS1 IOVDD1 IOVSS1 ui_PAD[2] ui_p2c[2] sg13g2_IOPadIn
x53 IOVDD1 VSS1 analog_io[1] VDD1 SUB analog_io_padres[1] IOVSS1 IOVDD1 sg13g2_IOPadAnalog
x54 IOVDD1 VSS1 analog_io[0] VDD1 SUB analog_io_padres[0] IOVSS1 IOVDD1 sg13g2_IOPadAnalog
x55 VSS1 VDD1 SUB IOVSS1 IOVDD1 IOVSS1 sg13g2_IOPadVdd
x56 VSS1 VDD1 SUB IOVSS1 IOVDD1 IOVSS1 sg13g2_IOPadVss
* noconn #net22
* noconn #net23
* noconn SUB
XR4 VSS SUB ptap1 R=11.96 w=7.27e-6 l=7.27e-6
XR1 IOVSS SUB ptap1 R=0.02362 w=201.69e-6 l=201.69e-6
.ends


* expanding   symbol:  IHP__MPC0349/dependencies/IHP__OSC3593/OSC3593-main/schematic/xschem/555.sym # of pins=9
** sym_path: /foss/designs/Design/UNICASS/unic-cass-analog-team3/designs/libs/IHP__MPC0349/dependencies/IHP__OSC3593/OSC3593-main/schematic/xschem/555.sym
** sch_path: /foss/designs/Design/UNICASS/unic-cass-analog-team3/designs/libs/IHP__MPC0349/dependencies/IHP__OSC3593/OSC3593-main/schematic/xschem/555.sch
.subckt 555 VDD TRESHOLD DISCHARGE CONTROL VBIAS RESET OUTPUT TRIGGER VSS
*.opin OUTPUT
*.ipin TRIGGER
*.iopin VSS
*.ipin RESET
*.ipin TRESHOLD
*.opin DISCHARGE
*.ipin VBIAS
*.ipin CONTROL
*.iopin VDD
x1 VDD TRESHOLD CONTROL net2 VBIAS VSS Opamp
x2 VDD net1 net7 net6 net2 RESET VSS LatchJK
x3 VDD net3 TRIGGER net1 VBIAS VSS Opamp
XMN0 DISCHARGE net5 VSS VSS sg13_lv_nmos w=7.4u l=130.00n ng=1
x4 VDD net4 net6 VSS inv
x5 VDD OUTPUT net4 VSS inv
x6 VDD net5 OUTPUT VSS inv
XR1 VDD CONTROL VSS rppd w=0.5e-6 l=2e-6 m=1 b=0
XR2 CONTROL net3 VSS rppd w=0.5e-6 l=2e-6 m=1 b=0
XR3 net3 VSS VSS rppd w=0.5e-6 l=2e-6 m=1 b=0
.ends


* expanding   symbol:  IHP__MPC0349/dependencies/IHP__OPA2251/OPA2251-main/schematic/xschem/HPA.sym # of pins=7
** sym_path: /foss/designs/Design/UNICASS/unic-cass-analog-team3/designs/libs/IHP__MPC0349/dependencies/IHP__OPA2251/OPA2251-main/schematic/xschem/HPA.sym
** sch_path: /foss/designs/Design/UNICASS/unic-cass-analog-team3/designs/libs/IHP__MPC0349/dependencies/IHP__OPA2251/OPA2251-main/schematic/xschem/HPA.sch
.subckt HPA VDD VREF VOUTp VOUTn VINp VINn VSS
*.iopin VDD
*.iopin VSS
*.iopin VREF
*.ipin VINp
*.ipin VINn
*.opin VOUTn
*.opin VOUTp
x1 VDD VSS net2 net2 VOUTp VINp VINn VOUTn net3 net3 net1 VREF net1 Vop Von OTA_Telescopic_TOP_wp
* noconn Vop
* noconn Von
.ends


* expanding   symbol:  IHP__MPC0349/dependencies/IHP__OSC9996/OSC9996-main/schematic/xschem/TOP_ROILIFNEURON.sym # of pins=11
** sym_path: /foss/designs/Design/UNICASS/unic-cass-analog-team3/designs/libs/IHP__MPC0349/dependencies/IHP__OSC9996/OSC9996-main/schematic/xschem/TOP_ROILIFNEURON.sym
** sch_path: /foss/designs/Design/UNICASS/unic-cass-analog-team3/designs/libs/IHP__MPC0349/dependencies/IHP__OSC9996/OSC9996-main/schematic/xschem/TOP_ROILIFNEURON.sch
.subckt TOP_ROILIFNEURON VDD Vx2 RST SPIKEB2 VSS Vref2 COMPB2 Vx1 Vref1 SPIKEB1 COMPB1
*.opin SPIKEB1
*.opin COMPB1
*.opin SPIKEB2
*.opin COMPB2
*.iopin VDD
*.iopin VSS
*.ipin Vx1
*.ipin Vref1
*.ipin Vx2
*.ipin Vref2
*.ipin RST
xSPKB1 VDD SPIKE1 SPIKEB1 VSS gate_buff_pad
xCOMPB1 VDD COMP1 COMPB1 VSS gate_buff_pad
* noconn MEM1
* noconn MEM2
xSPKB2 VDD SPIKE2 SPIKEB2 VSS gate_buff_pad
xCOMPB2 VDD COMP2 COMPB2 VSS gate_buff_pad
xLIF1 VDD Vx1 MEM1 RST SPIKE1 VSS Vref1 COMP1 LIF_neuron
xLIF2 VDD Vx2 MEM2 RST SPIKE2 VSS Vref2 COMP2 LIF_neuron
.ends


* expanding   symbol:  IHP__MPC0349/dependencies/IHP__QDLL6501/QDLL6501-main/schematic/xschem/QDLL_TOP.sym # of pins=10
** sym_path: /foss/designs/Design/UNICASS/unic-cass-analog-team3/designs/libs/IHP__MPC0349/dependencies/IHP__QDLL6501/QDLL6501-main/schematic/xschem/QDLL_TOP.sym
** sch_path: /foss/designs/Design/UNICASS/unic-cass-analog-team3/designs/libs/IHP__MPC0349/dependencies/IHP__QDLL6501/QDLL6501-main/schematic/xschem/QDLL_TOP.sch
.subckt QDLL_TOP VDD VSS IN1 OUT1 OUT2 IN2 CPOUT2 VCONT2 IN3 OUT3
*.iopin VDD
*.iopin VSS
*.ipin IN1
*.ipin IN2
*.opin OUT1
*.opin OUT2
*.opin CPOUT2
*.ipin VCONT2
*.opin OUT3
*.ipin IN3
*  x1 -  SE_QDLL  IS MISSING !!!!
*  x2 -  SE_QDLL  IS MISSING !!!!
*  x3 -  DLine  IS MISSING !!!!
.ends


* expanding   symbol:  IHP__MPC0349/dependencies/IHP__OSC3593/OSC3593-main/schematic/xschem/PWMADCSYM.sym # of pins=6
** sym_path: /foss/designs/Design/UNICASS/unic-cass-analog-team3/designs/libs/IHP__MPC0349/dependencies/IHP__OSC3593/OSC3593-main/schematic/xschem/PWMADCSYM.sym
** sch_path: /foss/designs/Design/UNICASS/unic-cass-analog-team3/designs/libs/IHP__MPC0349/dependencies/IHP__OSC3593/OSC3593-main/schematic/xschem/PWMADCSYM.sch
.subckt PWMADCSYM VDD VIN VBIAS PWM CLK VSS
*.opin PWM
*.iopin VSS
*.iopin VDD
*.ipin VIN
*.ipin VBIAS
*.ipin CLK
x1 VDD VBIAS VIN VSS net1 net2 net3 flashadcSym
x2 VDD net5 net4 net6 CLK VSS cont3
x3 net6 PWM net3 net5 net2 net4 net1 VDD VSS 3bitcomparator
.ends


* expanding   symbol:  sg13g2_Corner_noptap.sym # of pins=7
** sym_path: /foss/designs/Design/UNICASS/unic-cass-analog-team3/designs/openpdk-libraries/ihp-sg13g2/sg13g2_io/xschem/sg13g2_Corner_noptap.sym
** sch_path: /foss/designs/Design/UNICASS/unic-cass-analog-team3/designs/openpdk-libraries/ihp-sg13g2/sg13g2_io/xschem/sg13g2_Corner_noptap.sch
.subckt sg13g2_Corner_noptap iovdd vdd vss sub iovss1 iovss3 iovss2
*.iopin vss
*.iopin iovdd
*.iopin vdd
*.iopin sub
*.iopin iovss1
*.iopin iovss2
*.iopin iovss3
* noconn iovdd
* noconn vdd
.ends


* expanding   symbol:  sg13g2_IOPadIn.sym # of pins=8
** sym_path: /foss/designs/Design/UNICASS/unic-cass-analog-team3/designs/openpdk-libraries/ihp-sg13g2/sg13g2_io/xschem/sg13g2_IOPadIn.sym
** sch_path: /foss/designs/Design/UNICASS/unic-cass-analog-team3/designs/openpdk-libraries/ihp-sg13g2/sg13g2_io/xschem/sg13g2_IOPadIn.sch
.subckt sg13g2_IOPadIn vss vdd ! iovss iovdd iovss1 pad p2c
*.iopin iovdd
*.iopin vss
*.iopin vdd
*.iopin !
*.iopin iovss
*.iopin iovss1
*.iopin pad
*.iopin p2c
XR2 vss ! ptap1 R=22.47 w=4.9e-6 l=4.9e-6
XR1 iovss1 ! ptap1 R=0.1716 w=73.6e-6 l=73.6e-6
x4 iovdd iovss1 pad p2c vdd vss ! sg13g2_LevelDown_noptap
x2 iovdd ! pad pad ! sg13g2_DCPDiode_noptap
x1 pad iovss pad iovdd ! sg13g2_DCNDiode
.ends


* expanding   symbol:  sg13g2_IOPadVss.sym # of pins=6
** sym_path: /foss/designs/Design/UNICASS/unic-cass-analog-team3/designs/openpdk-libraries/ihp-sg13g2/sg13g2_io/xschem/sg13g2_IOPadVss.sym
** sch_path: /foss/designs/Design/UNICASS/unic-cass-analog-team3/designs/openpdk-libraries/ihp-sg13g2/sg13g2_io/xschem/sg13g2_IOPadVss.sch
.subckt sg13g2_IOPadVss vss vdd sub iovss iovdd iovss1
*.iopin iovdd
*.iopin vss
*.iopin vdd
*.iopin sub
*.iopin iovss
*.iopin iovss1
XR2 vss sub ptap1 R=22.47 w=4.9e-6 l=4.9e-6
x2 iovdd sub vss vss sub sg13g2_DCPDiode_noptap
x4 vss iovss vss iovdd sub sg13g2_DCNDiode
* noconn vdd
XR1 iovss1 sub ptap1 R=0.1719 w=73.54e-6 l=73.54e-6
.ends


* expanding   symbol:  sg13g2_Filler4000.sym # of pins=7
** sym_path: /foss/designs/Design/UNICASS/unic-cass-analog-team3/designs/openpdk-libraries/ihp-sg13g2/sg13g2_io/xschem/sg13g2_Filler4000.sym
** sch_path: /foss/designs/Design/UNICASS/unic-cass-analog-team3/designs/openpdk-libraries/ihp-sg13g2/sg13g2_io/xschem/sg13g2_Filler4000.sch
.subckt sg13g2_Filler4000 iovdd iovss1 vdd iovss2 iovss3 vss sub
*.iopin iovss1
*.iopin iovss2
*.iopin iovss3
*.iopin vss
*.iopin iovdd
*.iopin vdd
*.iopin sub
XR3 iovss3 sub ptap1 R=1.7 w=19.5e-6 l=25e-6
XR4 vss sub ptap1 R=21.56 w=0.3e-6 l=19.5e-6
* noconn iovdd
* noconn vdd
XR1 iovss1 sub ptap1 R=1.7 w=19.5e-6 l=25e-6
XR2 iovss2 sub ptap1 R=1.7 w=19.5e-6 l=25e-6
.ends


* expanding   symbol:  sg13g2_Filler1000.sym # of pins=7
** sym_path: /foss/designs/Design/UNICASS/unic-cass-analog-team3/designs/openpdk-libraries/ihp-sg13g2/sg13g2_io/xschem/sg13g2_Filler1000.sym
** sch_path: /foss/designs/Design/UNICASS/unic-cass-analog-team3/designs/openpdk-libraries/ihp-sg13g2/sg13g2_io/xschem/sg13g2_Filler1000.sch
.subckt sg13g2_Filler1000 iovdd iovss1 vdd iovss2 iovss3 vss sub
*.iopin iovss1
*.iopin iovss2
*.iopin iovss3
*.iopin vss
*.iopin iovdd
*.iopin vdd
*.iopin sub
XR3 iovss3 sub ptap1 R=5.806 w=4.4e-6 l=25e-6
XR4 vss sub ptap1 R=87.86 w=0.31e-6 l=4.56e-6
* noconn iovdd
* noconn vdd
XR1 iovss1 sub ptap1 R=5.806 w=4.4e-6 l=25e-6
XR2 iovss2 sub ptap1 R=5.806 w=4.4e-6 l=25e-6
.ends


* expanding   symbol:  sg13g2_Filler400.sym # of pins=7
** sym_path: /foss/designs/Design/UNICASS/unic-cass-analog-team3/designs/openpdk-libraries/ihp-sg13g2/sg13g2_io/xschem/sg13g2_Filler400.sym
** sch_path: /foss/designs/Design/UNICASS/unic-cass-analog-team3/designs/openpdk-libraries/ihp-sg13g2/sg13g2_io/xschem/sg13g2_Filler400.sch
.subckt sg13g2_Filler400 iovdd iovss1 vdd iovss2 iovss3 vss sub
*.iopin iovss1
*.iopin iovss2
*.iopin iovss3
*.iopin vss
*.iopin iovdd
*.iopin vdd
*.iopin sub
XR3 iovss3 sub ptap1 R=10.85 w=1.56e-6 l=24.5e-6
XR4 vss sub ptap1 R=208 w=0.42e-6 l=1.6e-6
* noconn iovdd
* noconn vdd
XR1 iovss1 sub ptap1 R=10.85 w=1.56e-6 l=24.5e-6
XR2 iovss2 sub ptap1 R=10.85 w=1.56e-6 l=24.5e-6
.ends


* expanding   symbol:  sg13g2_Filler200.sym # of pins=7
** sym_path: /foss/designs/Design/UNICASS/unic-cass-analog-team3/designs/openpdk-libraries/ihp-sg13g2/sg13g2_io/xschem/sg13g2_Filler200.sym
** sch_path: /foss/designs/Design/UNICASS/unic-cass-analog-team3/designs/openpdk-libraries/ihp-sg13g2/sg13g2_io/xschem/sg13g2_Filler200.sch
.subckt sg13g2_Filler200 iovdd iovss1 vdd iovss2 iovss3 vss sub
*.iopin iovss1
*.iopin iovss2
*.iopin iovss3
*.iopin vss
*.iopin iovdd
*.iopin vdd
*.iopin sub
XR3 iovss3 sub ptap1 R=15.35 w=0.56e-6 l=24.5e-6
XR4 vss sub ptap1 R=182.8 w=0.34e-6 l=2.0e-6
XR1 iovss1 sub ptap1 R=15.35 w=0.56e-6 l=24.5e-6
XR2 iovss2 sub ptap1 R=15.35 w=0.56e-6 l=24.5e-6
* noconn iovdd
* noconn vdd
.ends


* expanding   symbol:  sg13g2_IOPadVdd.sym # of pins=6
** sym_path: /foss/designs/Design/UNICASS/unic-cass-analog-team3/designs/openpdk-libraries/ihp-sg13g2/sg13g2_io/xschem/sg13g2_IOPadVdd.sym
** sch_path: /foss/designs/Design/UNICASS/unic-cass-analog-team3/designs/openpdk-libraries/ihp-sg13g2/sg13g2_io/xschem/sg13g2_IOPadVdd.sch
.subckt sg13g2_IOPadVdd vss vdd ! iovss iovdd iovss1
*.iopin iovdd
*.iopin vss
*.iopin vdd
*.iopin !
*.iopin iovss1
*.iopin iovss
XR2 vss ! ptap1 R=22.47 w=4.9e-6 l=4.9e-6
XR1 iovss1 ! ptap1 R=0.4388 w=45.3e-6 l=45.3e-6
x1 iovss vdd vdd vdd vdd vdd vdd vdd vdd vdd vdd vdd vdd vdd vdd vdd vdd vdd vdd vdd vdd vdd vdd ! net2 sg13g2_Clamp_N43N43D4R
x2 vdd net1 ! sg13g2_RCClampResistor
x3 vdd iovss1 net1 net2 ! sg13g2_RCClampInverter_noptap
* noconn iovdd
.ends


* expanding   symbol:  sg13g2_IOPadAnalog.sym # of pins=8
** sym_path: /foss/designs/Design/UNICASS/unic-cass-analog-team3/designs/openpdk-libraries/ihp-sg13g2/sg13g2_io/xschem/sg13g2_IOPadAnalog.sym
** sch_path: /foss/designs/Design/UNICASS/unic-cass-analog-team3/designs/openpdk-libraries/ihp-sg13g2/sg13g2_io/xschem/sg13g2_IOPadAnalog.sch
.subckt sg13g2_IOPadAnalog iovdd1 vss pad vdd ! padres iovss iovdd
*.iopin padres
*.iopin iovdd
*.iopin vss
*.iopin vdd
*.iopin !
*.iopin iovss
*.iopin pad
*.iopin iovdd1
XR2 vss ! ptap1 R=22.54 w=4.89e-6 l=4.89e-6
x1 iovdd iovss pad pad pad pad pad pad pad pad pad pad ! sg13g2_Clamp_P20N0D_noptap
x2 iovdd ! pad pad ! sg13g2_DCPDiode_noptap
x3 iovss pad pad pad pad pad pad pad pad pad pad ! sg13g2_Clamp_N20N0D
x4 pad iovss pad iovdd ! sg13g2_DCNDiode
x5 padres iovdd1 iovss pad ! sg13g2_SecondaryProtection
* noconn vdd
XR1 iovss ! ptap1 R=0.2112 w=66.14e-6 l=66.14e-6
.ends


* expanding   symbol:  sg13g2_IOPadIOVdd.sym # of pins=6
** sym_path: /foss/designs/Design/UNICASS/unic-cass-analog-team3/designs/openpdk-libraries/ihp-sg13g2/sg13g2_io/xschem/sg13g2_IOPadIOVdd.sym
** sch_path: /foss/designs/Design/UNICASS/unic-cass-analog-team3/designs/openpdk-libraries/ihp-sg13g2/sg13g2_io/xschem/sg13g2_IOPadIOVdd.sch
.subckt sg13g2_IOPadIOVdd vss vdd ! iovss iovdd iovss1
*.iopin iovdd
*.iopin vss
*.iopin vdd
*.iopin !
*.iopin iovss1
*.iopin iovss
XR2 vss ! ptap1 R=22.47 w=4.9e-6 l=4.9e-6
* noconn vdd
XR1 iovss1 ! ptap1 R=0.4388 w=45.3e-6 l=45.3e-6
x1 iovss iovdd iovdd iovdd iovdd iovdd iovdd iovdd iovdd iovdd iovdd iovdd iovdd iovdd iovdd iovdd iovdd iovdd iovdd iovdd iovdd
+ iovdd iovdd ! net2 sg13g2_Clamp_N43N43D4R
x2 iovdd net1 ! sg13g2_RCClampResistor
x3 iovdd iovss1 net1 net2 ! sg13g2_RCClampInverter_noptap
.ends


* expanding   symbol:  sg13g2_IOPadIOVss.sym # of pins=5
** sym_path: /foss/designs/Design/UNICASS/unic-cass-analog-team3/designs/openpdk-libraries/ihp-sg13g2/sg13g2_io/xschem/sg13g2_IOPadIOVss.sym
** sch_path: /foss/designs/Design/UNICASS/unic-cass-analog-team3/designs/openpdk-libraries/ihp-sg13g2/sg13g2_io/xschem/sg13g2_IOPadIOVss.sch
.subckt sg13g2_IOPadIOVss vss vdd sub iovss iovdd
*.iopin iovdd
*.iopin vss
*.iopin vdd
*.iopin sub
*.iopin iovss
XR2 vss sub ptap1 R=22.47 w=4.9e-6 l=4.9e-6
* noconn vdd
XR1 iovss sub ptap1 R=0.1716 w=73.6e-6 l=73.6e-6
x2 iovdd sub iovss iovss sub sg13g2_DCPDiode_noptap
x1 iovss iovss iovss iovdd sub sg13g2_DCNDiode
.ends


* expanding   symbol:  sg13g2_IOPadOut4mA.sym # of pins=8
** sym_path: /foss/designs/Design/UNICASS/unic-cass-analog-team3/designs/openpdk-libraries/ihp-sg13g2/sg13g2_io/xschem/sg13g2_IOPadOut4mA.sym
** sch_path: /foss/designs/Design/UNICASS/unic-cass-analog-team3/designs/openpdk-libraries/ihp-sg13g2/sg13g2_io/xschem/sg13g2_IOPadOut4mA.sch
.subckt sg13g2_IOPadOut4mA vss vdd sub iovss iovdd1 c2p pad iovdd
*.iopin iovdd1
*.iopin vss
*.iopin vdd
*.iopin sub
*.iopin iovss
*.iopin iovdd
*.iopin pad
*.iopin c2p
XR2 vss sub ptap1 R=22.47 w=4.9e-6 l=4.9e-6
XR1 iovss sub ptap1 R=0.2094 w=66.44e-6 l=66.44e-6
x2 iovdd sub pad pad sub sg13g2_DCPDiode_noptap
x1 pad iovss pad iovdd sub sg13g2_DCNDiode
x3 iovdd1 vss c2p net1 vdd sub net2 sg13g2_GateLevelUpInv_noptap
x4 net2 pad iovss sub sg13g2_Clamp_N2N2D
x5 net1 iovdd iovss pad sub sg13g2_Clamp_P2N2D_noptap
.ends


* expanding   symbol:  Opamp.sym # of pins=6
** sym_path: /foss/designs/Design/UNICASS/unic-cass-analog-team3/designs/libs/IHP__MPC0349/dependencies/IHP__OSC3593/OSC3593-main/schematic/xschem/Opamp.sym
** sch_path: /foss/designs/Design/UNICASS/unic-cass-analog-team3/designs/libs/IHP__MPC0349/dependencies/IHP__OSC3593/OSC3593-main/schematic/xschem/Opamp.sch
.subckt Opamp VDD Vin Vref Vout Vbias VSS
*.ipin Vin
*.iopin VDD
*.iopin VSS
*.ipin Vref
*.opin Vout
*.ipin Vbias
XMP5 net4 net4 VDD VDD sg13_lv_pmos w=10u l=150.00n ng=1
XMP6 net1 net4 VDD VDD sg13_lv_pmos w=10u l=150.00n ng=1
XMN4 net3 net2 VSS VSS sg13_lv_nmos w=420.00n l=560.00n ng=1
XMN5 net2 net2 VSS VSS sg13_lv_nmos w=420.00n l=560.00n ng=1